version 2
run Sinusoidal-2-20210914-12:51:29-3252097
attr configname Sinusoidal
attr datetime 20210914-12:51:29
attr experiment Sinusoidal
attr inifile omnetpp.ini
attr iterationvars "$attackStartTime=12, $myPDValue=1, $myPDforDoS=60, $attackEndTime=10, $nCars=4, $platoonSize=4, $nLanes=1, $ploegH=0.5, $controller=1, $sController=\"CACC\", $headway=0.1, $leaderHeadway=1.2, $leaderSpeed=100, $beaconInterval=0.1, $priority=4, $packetSize=200, $0=5, $1=0"
attr iterationvarsf attackStartTime=12,myPDValue=1,myPDforDoS=60,attackEndTime=10,nCars=4,platoonSize=4,nLanes=1,ploegH=0.5,controller=1,sController=CACC,headway=0.1,leaderHeadway=1.2,leaderSpeed=100,beaconInterval=0.1,priority=4,packetSize=200,5,0-
attr measurement "$attackStartTime=12, $myPDValue=1, $myPDforDoS=60, $attackEndTime=10, $nCars=4, $platoonSize=4, $nLanes=1, $ploegH=0.5, $controller=1, $sController=\"CACC\", $headway=0.1, $leaderHeadway=1.2, $leaderSpeed=100, $beaconInterval=0.1, $priority=4, $packetSize=200, $0=5, $1=0"
attr network Highway
attr processid 3252097
attr repetition 0
attr replication #0
attr resultdir results
attr runnumber 2
attr seedset 0
itervar attackEndTime 10
itervar attackStartTime 12
itervar beaconInterval 0.1
itervar controller 1
itervar headway 0.1
itervar leaderHeadway 1.2
itervar leaderSpeed 100
itervar myPDValue 1
itervar myPDforDoS 60
itervar nCars 4
itervar nLanes 1
itervar packetSize 200
itervar platoonSize 4
itervar ploegH 0.5
itervar priority 4
itervar sController "\"CACC\""
param *.manager.command "\"sumo-gui\""
param *.node[*].scenario_type "\"SinusoidalScenario\""
param *.node[*].scenario.leaderOscillationFrequency "0.2 Hz"
param *.node[*].scenario.oscillationAmplitude "10 kmph"
param *.node[*].scenario.startOscillating "5 s"
param *.attacker.attackStartTime 12s
param *.attacker.attackNode 27
param *.attacker.attackActive false
param *.attacker.attackOnSender false
param *.attacker.attackOnReceiver false
param *.attacker.DelayAttack false
param *.attacker.myPDValue 1s
param *.attacker.DoSAttack false
param *.attacker.myPDforDoS 60s
param *.attacker.attackEndTime 10s
param *.playgroundSizeX 65000m
param *.playgroundSizeY 25000m
param *.playgroundSizeZ 50m
param *.annotations.draw false
param *.obstacles.debug false
param *.world.useTorus false
param *.world.use2D false
param *.manager.updateInterval 0.01s
param *.manager.host "\"localhost\""
param *.manager.moduleType "\"org.car2x.plexe.PlatoonCar\""
param *.manager.moduleName "\"node\""
param *.manager.moduleDisplayString "\"\""
param *.manager.autoShutdown true
param *.manager.margin 25
param *.connectionManager.sendDirect true
param *.connectionManager.maxInterfDist 2600m
param *.connectionManager.drawMaxIntfDist false
param *.**.nic.mac1609_4.useServiceChannel false
param *.**.nic.mac1609_4.txPower 100mW
param *.**.nic.mac1609_4.bitrate 6Mbps
param *.**.nic.mac1609_4.useAcks true
param *.**.nic.mac1609_4.ackErrorRate 0.0
param *.**.nic.mac1609_4.frameErrorRate 0.0
param *.**.nic.phy80211p.minPowerLevel -94dBm
param *.**.nic.phy80211p.maxTXPower 100mW
param *.**.nic.phy80211p.useNoiseFloor true
param *.**.nic.phy80211p.noiseFloor -95dBm
param *.**.nic.phy80211p.decider "xmldoc(\"config.xml\")"
param *.**.nic.phy80211p.analogueModels "xmldoc(\"config.xml\")"
param *.**.nic.phy80211p.usePropagationDelay true
param *.node[*].mobility.x 0
param *.node[*].mobility.y 0
param *.node[*].mobility.z 1.895
param **.seed 0
param *.manager.configFile "\"./sumocfg/freeway.sumo.cfg\""
param *.manager.launchConfig "xmldoc(\"./sumocfg/freeway.launchd.xml\")"
param **.numberOfCars 4
param **.numberOfCarsPerPlatoon 4
param **.numberOfLanes 1
param *.node[*].helper_type "\"PositionHelper\""
param *.node[*].scenario.caccC1 0.5
param *.node[*].scenario.caccXi 1
param *.node[*].scenario.caccOmegaN "0.2 Hz"
param *.node[*].scenario.caccSpacing "5 m"
param *.node[*].scenario.engineTau "0.5 s"
param *.node[*].scenario.ploegH 0.5s
param *.node[*].scenario.ploegKp 0.2
param *.node[*].scenario.ploegKd 0.7
param *.node[*].scenario.useRealisticEngine false
param *.node[*].scenario.useControllerAcceleration true
param *.node[*].scenario.nLanes 1
param **.numericController 1
param *.node[*].scenario.controller "\"CACC\""
param **.headway 0.1s
param *.node[*].scenario.accHeadway 0.1s
param *.node[*].scenario.leaderHeadway 1.2s
param *.node[*].scenario.leaderSpeed 100kmph
param *.node[*].appl_type "\"SimplePlatooningApp\""
param *.node[*].protocol_type "\"SimplePlatooningBeaconing\""
param *.node[*].prot.beaconingInterval 0.1s
param *.node[*].prot.priority 4
param *.node[*].prot.packetSize 200
param **.traffic_type "\"PlatoonsTrafficManager\""
param **.traffic.platoonInsertTime "1 s"
param **.traffic.platoonInsertSpeed 100kmph
param **.traffic.nCars 4
param **.traffic.platoonSize 4
param **.traffic.nLanes 1
param **.traffic.platooningVType "\"vtypeauto\""
param **.traffic.platoonInsertDistance 5m
param **.traffic.platoonInsertHeadway 0s
param **.traffic.platoonLeaderHeadway 1.2s

vector 0 Highway.node[0].appl distance ETV
vector 1 Highway.node[0].appl relativeSpeed ETV
vector 2 Highway.node[0].appl nodeId ETV
vector 3 Highway.node[0].appl acceleration ETV
vector 4 Highway.node[0].appl controllerAcceleration ETV
vector 5 Highway.node[0].appl speed ETV
vector 6 Highway.node[0].appl posx ETV
vector 7 Highway.node[0].appl posy ETV
vector 8 Highway.node[1].appl distance ETV
vector 9 Highway.node[1].appl relativeSpeed ETV
vector 10 Highway.node[1].appl nodeId ETV
vector 11 Highway.node[1].appl acceleration ETV
vector 12 Highway.node[1].appl controllerAcceleration ETV
vector 13 Highway.node[1].appl speed ETV
vector 14 Highway.node[1].appl posx ETV
vector 15 Highway.node[1].appl posy ETV
vector 16 Highway.node[2].appl distance ETV
vector 17 Highway.node[2].appl relativeSpeed ETV
vector 18 Highway.node[2].appl nodeId ETV
vector 19 Highway.node[2].appl acceleration ETV
vector 20 Highway.node[2].appl controllerAcceleration ETV
vector 21 Highway.node[2].appl speed ETV
vector 22 Highway.node[2].appl posx ETV
vector 23 Highway.node[2].appl posy ETV
vector 24 Highway.node[3].appl distance ETV
vector 25 Highway.node[3].appl relativeSpeed ETV
vector 26 Highway.node[3].appl nodeId ETV
vector 27 Highway.node[3].appl acceleration ETV
vector 28 Highway.node[3].appl controllerAcceleration ETV
vector 29 Highway.node[3].appl speed ETV
vector 30 Highway.node[3].appl posx ETV
vector 31 Highway.node[3].appl posy ETV
vector 32 Highway.node[3].prot frontDelay ETV
vector 33 Highway.node[3].prot frontDelayId ETV
vector 34 Highway.node[2].prot frontDelay ETV
vector 35 Highway.node[2].prot frontDelayId ETV
vector 36 Highway.node[1].prot leaderDelay ETV
vector 37 Highway.node[1].prot leaderDelayId ETV
vector 38 Highway.node[1].prot frontDelay ETV
vector 39 Highway.node[1].prot frontDelayId ETV
vector 40 Highway.node[2].prot leaderDelay ETV
vector 41 Highway.node[2].prot leaderDelayId ETV
vector 42 Highway.node[3].prot leaderDelay ETV
vector 43 Highway.node[3].prot leaderDelayId ETV
vector 44 Highway.node[0].prot nodeId ETV
vector 45 Highway.node[0].prot busyTime ETV
vector 46 Highway.node[0].prot collisions ETV
vector 47 Highway.node[1].prot nodeId ETV
vector 48 Highway.node[1].prot busyTime ETV
vector 49 Highway.node[1].prot collisions ETV
vector 50 Highway.node[2].prot nodeId ETV
vector 51 Highway.node[2].prot busyTime ETV
vector 52 Highway.node[2].prot collisions ETV
vector 53 Highway.node[3].prot nodeId ETV
vector 54 Highway.node[3].prot busyTime ETV
vector 55 Highway.node[3].prot collisions ETV
0	113	1.11	-1
0	263	1.21	-1
0	413	1.31	-1
0	563	1.41	-1
0	713	1.51	-1
0	863	1.61	-1
0	1013	1.71	-1
0	1163	1.81	-1
0	1313	1.91	-1
0	1467	2.01	-1
0	1617	2.11	-1
0	1767	2.21	-1
0	1917	2.31	-1
0	2067	2.41	-1
0	2217	2.51	-1
0	2367	2.61	-1
0	2517	2.71	-1
0	2667	2.81	-1
0	2817	2.91	-1
0	2971	3.01	-1
0	3121	3.11	-1
0	3271	3.21	-1
0	3421	3.31	-1
0	3571	3.41	-1
0	3721	3.51	-1
0	3871	3.61	-1
0	4021	3.71	-1
0	4171	3.81	-1
0	4321	3.91	-1
0	4475	4.01	-1
0	4625	4.11	-1
0	4775	4.21	-1
0	4925	4.31	-1
0	5075	4.41	-1
0	5225	4.51	-1
0	5375	4.61	-1
0	5525	4.71	-1
0	5675	4.81	-1
0	5825	4.91	-1
0	5980	5.01	-1
0	6131	5.11	-1
0	6282	5.21	-1
0	6433	5.31	-1
0	6584	5.41	-1
0	6735	5.51	-1
0	6886	5.61	-1
0	7037	5.71	-1
0	7188	5.81	-1
0	7339	5.91	-1
0	7494	6.01	-1
0	7645	6.11	-1
0	7796	6.21	-1
0	7947	6.31	-1
0	8098	6.41	-1
0	8249	6.51	-1
0	8400	6.61	-1
0	8551	6.71	-1
0	8702	6.81	-1
0	8853	6.91	-1
0	9008	7.01	-1
0	9159	7.11	-1
0	9310	7.21	-1
0	9461	7.31	-1
0	9612	7.41	-1
0	9763	7.51	-1
0	9914	7.61	-1
0	10065	7.71	-1
0	10216	7.81	-1
0	10367	7.91	-1
0	10522	8.01	-1
0	10673	8.11	-1
0	10824	8.21	-1
0	10975	8.31	-1
0	11126	8.41	-1
0	11277	8.51	-1
0	11428	8.61	-1
0	11579	8.71	-1
0	11730	8.81	-1
0	11881	8.91	-1
0	12036	9.01	-1
0	12187	9.11	-1
0	12338	9.21	-1
0	12489	9.31	-1
0	12640	9.41	-1
0	12791	9.51	-1
0	12942	9.61	-1
0	13093	9.71	-1
0	13244	9.81	-1
0	13395	9.91	-1
0	13550	10.01	-1
0	13701	10.11	-1
0	13852	10.21	-1
0	14003	10.31	-1
0	14154	10.41	-1
0	14305	10.51	-1
0	14456	10.61	-1
0	14607	10.71	-1
0	14758	10.81	-1
0	14909	10.91	-1
0	15064	11.01	-1
0	15215	11.11	-1
0	15366	11.21	-1
0	15517	11.31	-1
0	15668	11.41	-1
0	15819	11.51	-1
0	15970	11.61	-1
0	16121	11.71	-1
0	16272	11.81	-1
0	16423	11.91	-1
0	16578	12.01	-1
0	16729	12.11	-1
0	16880	12.21	-1
0	17031	12.31	-1
0	17182	12.41	-1
0	17333	12.51	-1
0	17484	12.61	-1
0	17635	12.71	-1
0	17786	12.81	-1
0	17937	12.91	-1
0	18092	13.01	-1
0	18243	13.11	-1
0	18394	13.21	-1
0	18545	13.31	-1
0	18696	13.41	-1
0	18847	13.51	-1
0	18998	13.61	-1
0	19149	13.71	-1
0	19300	13.81	-1
0	19451	13.91	-1
0	19606	14.01	-1
0	19757	14.11	-1
0	19908	14.21	-1
0	20059	14.31	-1
0	20210	14.41	-1
0	20361	14.51	-1
0	20512	14.61	-1
0	20663	14.71	-1
0	20814	14.81	-1
0	20965	14.91	-1
0	21120	15.01	-1
0	21271	15.11	-1
0	21422	15.21	-1
0	21573	15.31	-1
0	21724	15.41	-1
0	21875	15.51	-1
0	22026	15.61	-1
0	22177	15.71	-1
0	22328	15.81	-1
0	22479	15.91	-1
0	22634	16.01	-1
0	22785	16.11	-1
0	22936	16.21	-1
0	23087	16.31	-1
0	23238	16.41	-1
0	23389	16.51	-1
0	23540	16.61	-1
0	23691	16.71	-1
0	23842	16.81	-1
0	23993	16.91	-1
0	24148	17.01	-1
0	24299	17.11	-1
0	24450	17.21	-1
0	24601	17.31	-1
0	24752	17.41	-1
0	24903	17.51	-1
0	25054	17.61	-1
0	25205	17.71	-1
0	25356	17.81	-1
0	25507	17.91	-1
0	25662	18.01	-1
0	25813	18.11	-1
0	25964	18.21	-1
0	26115	18.31	-1
0	26266	18.41	-1
0	26417	18.51	-1
0	26568	18.61	-1
0	26719	18.71	-1
0	26870	18.81	-1
0	27021	18.91	-1
0	27176	19.01	-1
0	27327	19.11	-1
0	27478	19.21	-1
0	27629	19.31	-1
0	27780	19.41	-1
0	27931	19.51	-1
0	28082	19.61	-1
0	28233	19.71	-1
0	28384	19.81	-1
0	28535	19.91	-1
0	28690	20.01	-1
0	28841	20.11	-1
0	28992	20.21	-1
0	29143	20.31	-1
0	29294	20.41	-1
0	29445	20.51	-1
0	29596	20.61	-1
0	29747	20.71	-1
0	29898	20.81	-1
0	30049	20.91	-1
0	30204	21.01	-1
0	30355	21.11	-1
0	30506	21.21	-1
0	30657	21.31	-1
0	30808	21.41	-1
0	30959	21.51	-1
0	31110	21.61	-1
0	31261	21.71	-1
0	31412	21.81	-1
0	31563	21.91	-1
0	31718	22.01	-1
0	31869	22.11	-1
0	32020	22.21	-1
0	32171	22.31	-1
0	32322	22.41	-1
0	32473	22.51	-1
0	32624	22.61	-1
0	32775	22.71	-1
0	32926	22.81	-1
0	33077	22.91	-1
0	33232	23.01	-1
0	33383	23.11	-1
0	33534	23.21	-1
0	33685	23.31	-1
0	33836	23.41	-1
0	33987	23.51	-1
0	34138	23.61	-1
0	34289	23.71	-1
0	34440	23.81	-1
0	34591	23.91	-1
0	34746	24.01	-1
0	34897	24.11	-1
0	35048	24.21	-1
0	35199	24.31	-1
0	35350	24.41	-1
0	35501	24.51	-1
0	35652	24.61	-1
0	35803	24.71	-1
0	35954	24.81	-1
0	36105	24.91	-1
0	36260	25.01	-1
0	36411	25.11	-1
0	36562	25.21	-1
0	36713	25.31	-1
0	36864	25.41	-1
0	37015	25.51	-1
0	37166	25.61	-1
0	37317	25.71	-1
0	37468	25.81	-1
0	37619	25.91	-1
0	37774	26.01	-1
0	37925	26.11	-1
0	38076	26.21	-1
0	38227	26.31	-1
0	38378	26.41	-1
0	38529	26.51	-1
0	38680	26.61	-1
0	38831	26.71	-1
0	38982	26.81	-1
0	39133	26.91	-1
0	39288	27.01	-1
0	39439	27.11	-1
0	39590	27.21	-1
0	39741	27.31	-1
0	39892	27.41	-1
0	40043	27.51	-1
0	40194	27.61	-1
0	40345	27.71	-1
0	40496	27.81	-1
0	40647	27.91	-1
0	40802	28.01	-1
0	40953	28.11	-1
0	41104	28.21	-1
0	41255	28.31	-1
0	41406	28.41	-1
0	41557	28.51	-1
0	41708	28.61	-1
0	41859	28.71	-1
0	42010	28.81	-1
0	42161	28.91	-1
0	42316	29.01	-1
0	42467	29.11	-1
0	42618	29.21	-1
0	42769	29.31	-1
0	42920	29.41	-1
0	43071	29.51	-1
0	43222	29.61	-1
0	43373	29.71	-1
0	43524	29.81	-1
0	43675	29.91	-1
0	43830	30.01	-1
0	43981	30.11	-1
0	44132	30.21	-1
0	44283	30.31	-1
0	44434	30.41	-1
0	44585	30.51	-1
0	44736	30.61	-1
0	44887	30.71	-1
0	45038	30.81	-1
0	45189	30.91	-1
0	45344	31.01	-1
0	45495	31.11	-1
0	45646	31.21	-1
0	45797	31.31	-1
0	45948	31.41	-1
0	46099	31.51	-1
0	46250	31.61	-1
0	46401	31.71	-1
0	46552	31.81	-1
0	46703	31.91	-1
0	46858	32.01	-1
0	47009	32.11	-1
0	47160	32.21	-1
0	47311	32.31	-1
0	47462	32.41	-1
0	47613	32.51	-1
0	47764	32.61	-1
0	47915	32.71	-1
0	48066	32.81	-1
0	48217	32.91	-1
0	48372	33.01	-1
0	48523	33.11	-1
0	48674	33.21	-1
0	48825	33.31	-1
0	48976	33.41	-1
0	49127	33.51	-1
0	49278	33.61	-1
0	49429	33.71	-1
0	49580	33.81	-1
0	49731	33.91	-1
0	49886	34.01	-1
0	50037	34.11	-1
0	50188	34.21	-1
0	50339	34.31	-1
0	50490	34.41	-1
0	50641	34.51	-1
0	50792	34.61	-1
0	50943	34.71	-1
0	51094	34.81	-1
0	51245	34.91	-1
0	51400	35.01	-1
0	51551	35.11	-1
0	51702	35.21	-1
0	51853	35.31	-1
0	52004	35.41	-1
0	52155	35.51	-1
0	52306	35.61	-1
0	52457	35.71	-1
0	52608	35.81	-1
0	52759	35.91	-1
0	52914	36.01	-1
0	53065	36.11	-1
0	53216	36.21	-1
0	53367	36.31	-1
0	53518	36.41	-1
0	53669	36.51	-1
0	53820	36.61	-1
0	53971	36.71	-1
0	54122	36.81	-1
0	54273	36.91	-1
0	54428	37.01	-1
0	54579	37.11	-1
0	54730	37.21	-1
0	54881	37.31	-1
0	55032	37.41	-1
0	55183	37.51	-1
0	55334	37.61	-1
0	55485	37.71	-1
0	55636	37.81	-1
0	55787	37.91	-1
0	55942	38.01	-1
0	56093	38.11	-1
0	56244	38.21	-1
0	56395	38.31	-1
0	56546	38.41	-1
0	56697	38.51	-1
0	56848	38.61	-1
0	56999	38.71	-1
0	57150	38.81	-1
0	57301	38.91	-1
0	57456	39.01	-1
0	57607	39.11	-1
0	57758	39.21	-1
0	57909	39.31	-1
0	58060	39.41	-1
0	58211	39.51	-1
0	58362	39.61	-1
0	58513	39.71	-1
0	58664	39.81	-1
0	58815	39.91	-1
0	58970	40.01	-1
0	59121	40.11	-1
0	59272	40.21	-1
0	59423	40.31	-1
0	59574	40.41	-1
0	59725	40.51	-1
0	59876	40.61	-1
0	60027	40.71	-1
0	60178	40.81	-1
0	60329	40.91	-1
0	60484	41.01	-1
0	60635	41.11	-1
0	60786	41.21	-1
0	60937	41.31	-1
0	61088	41.41	-1
0	61239	41.51	-1
0	61390	41.61	-1
0	61541	41.71	-1
0	61692	41.81	-1
0	61843	41.91	-1
0	61998	42.01	-1
0	62149	42.11	-1
0	62300	42.21	-1
0	62451	42.31	-1
0	62602	42.41	-1
0	62753	42.51	-1
0	62904	42.61	-1
0	63055	42.71	-1
0	63206	42.81	-1
0	63357	42.91	-1
0	63512	43.01	-1
0	63663	43.11	-1
0	63814	43.21	-1
0	63965	43.31	-1
0	64116	43.41	-1
0	64267	43.51	-1
0	64418	43.61	-1
0	64569	43.71	-1
0	64720	43.81	-1
0	64871	43.91	-1
0	65026	44.01	-1
0	65177	44.11	-1
0	65328	44.21	-1
0	65479	44.31	-1
0	65630	44.41	-1
0	65781	44.51	-1
0	65932	44.61	-1
0	66083	44.71	-1
0	66234	44.81	-1
0	66385	44.91	-1
0	66540	45.01	-1
0	66691	45.11	-1
0	66842	45.21	-1
0	66993	45.31	-1
0	67144	45.41	-1
0	67295	45.51	-1
0	67446	45.61	-1
0	67597	45.71	-1
0	67748	45.81	-1
0	67899	45.91	-1
0	68054	46.01	-1
0	68205	46.11	-1
0	68356	46.21	-1
0	68507	46.31	-1
0	68658	46.41	-1
0	68809	46.51	-1
0	68960	46.61	-1
0	69111	46.71	-1
0	69262	46.81	-1
0	69413	46.91	-1
0	69568	47.01	-1
0	69719	47.11	-1
0	69870	47.21	-1
0	70021	47.31	-1
0	70172	47.41	-1
0	70323	47.51	-1
0	70474	47.61	-1
0	70625	47.71	-1
0	70776	47.81	-1
0	70927	47.91	-1
0	71082	48.01	-1
0	71233	48.11	-1
0	71384	48.21	-1
0	71535	48.31	-1
0	71686	48.41	-1
0	71837	48.51	-1
0	71988	48.61	-1
0	72139	48.71	-1
0	72290	48.81	-1
0	72441	48.91	-1
0	72596	49.01	-1
0	72747	49.11	-1
0	72898	49.21	-1
0	73049	49.31	-1
0	73200	49.41	-1
0	73351	49.51	-1
0	73502	49.61	-1
0	73653	49.71	-1
0	73804	49.81	-1
0	73955	49.91	-1
0	74110	50.01	-1
0	74261	50.11	-1
0	74412	50.21	-1
0	74563	50.31	-1
0	74714	50.41	-1
0	74865	50.51	-1
0	75016	50.61	-1
0	75167	50.71	-1
0	75318	50.81	-1
0	75469	50.91	-1
0	75624	51.01	-1
0	75775	51.11	-1
0	75926	51.21	-1
0	76077	51.31	-1
0	76228	51.41	-1
0	76379	51.51	-1
0	76530	51.61	-1
0	76681	51.71	-1
0	76832	51.81	-1
0	76983	51.91	-1
0	77138	52.01	-1
0	77289	52.11	-1
0	77440	52.21	-1
0	77591	52.31	-1
0	77742	52.41	-1
0	77893	52.51	-1
0	78044	52.61	-1
0	78195	52.71	-1
0	78346	52.81	-1
0	78497	52.91	-1
0	78652	53.01	-1
0	78803	53.11	-1
0	78954	53.21	-1
0	79105	53.31	-1
0	79256	53.41	-1
0	79407	53.51	-1
0	79558	53.61	-1
0	79709	53.71	-1
0	79860	53.81	-1
0	80011	53.91	-1
0	80166	54.01	-1
0	80317	54.11	-1
0	80468	54.21	-1
0	80619	54.31	-1
0	80770	54.41	-1
0	80921	54.51	-1
0	81072	54.61	-1
0	81223	54.71	-1
0	81374	54.81	-1
0	81525	54.91	-1
0	81680	55.01	-1
0	81831	55.11	-1
0	81982	55.21	-1
0	82133	55.31	-1
0	82284	55.41	-1
0	82435	55.51	-1
0	82586	55.61	-1
0	82737	55.71	-1
0	82888	55.81	-1
0	83039	55.91	-1
0	83194	56.01	-1
0	83345	56.11	-1
0	83496	56.21	-1
0	83647	56.31	-1
0	83798	56.41	-1
0	83949	56.51	-1
0	84100	56.61	-1
0	84251	56.71	-1
0	84402	56.81	-1
0	84553	56.91	-1
0	84708	57.01	-1
0	84859	57.11	-1
0	85010	57.21	-1
0	85161	57.31	-1
0	85312	57.41	-1
0	85463	57.51	-1
0	85614	57.61	-1
0	85765	57.71	-1
0	85916	57.81	-1
0	86067	57.91	-1
0	86222	58.01	-1
0	86373	58.11	-1
0	86524	58.21	-1
0	86675	58.31	-1
0	86826	58.41	-1
0	86977	58.51	-1
0	87128	58.61	-1
0	87279	58.71	-1
0	87430	58.81	-1
0	87581	58.91	-1
0	87736	59.01	-1
0	87887	59.11	-1
0	88038	59.21	-1
0	88189	59.31	-1
0	88340	59.41	-1
0	88491	59.51	-1
0	88642	59.61	-1
0	88793	59.71	-1
0	88944	59.81	-1
0	89095	59.91	-1
1	113	1.11	0
1	263	1.21	0
1	413	1.31	0
1	563	1.41	0
1	713	1.51	0
1	863	1.61	0
1	1013	1.71	0
1	1163	1.81	0
1	1313	1.91	0
1	1467	2.01	0
1	1617	2.11	0
1	1767	2.21	0
1	1917	2.31	0
1	2067	2.41	0
1	2217	2.51	0
1	2367	2.61	0
1	2517	2.71	0
1	2667	2.81	0
1	2817	2.91	0
1	2971	3.01	0
1	3121	3.11	0
1	3271	3.21	0
1	3421	3.31	0
1	3571	3.41	0
1	3721	3.51	0
1	3871	3.61	0
1	4021	3.71	0
1	4171	3.81	0
1	4321	3.91	0
1	4475	4.01	0
1	4625	4.11	0
1	4775	4.21	0
1	4925	4.31	0
1	5075	4.41	0
1	5225	4.51	0
1	5375	4.61	0
1	5525	4.71	0
1	5675	4.81	0
1	5825	4.91	0
1	5980	5.01	0
1	6131	5.11	0
1	6282	5.21	0
1	6433	5.31	0
1	6584	5.41	0
1	6735	5.51	0
1	6886	5.61	0
1	7037	5.71	0
1	7188	5.81	0
1	7339	5.91	0
1	7494	6.01	0
1	7645	6.11	0
1	7796	6.21	0
1	7947	6.31	0
1	8098	6.41	0
1	8249	6.51	0
1	8400	6.61	0
1	8551	6.71	0
1	8702	6.81	0
1	8853	6.91	0
1	9008	7.01	0
1	9159	7.11	0
1	9310	7.21	0
1	9461	7.31	0
1	9612	7.41	0
1	9763	7.51	0
1	9914	7.61	0
1	10065	7.71	0
1	10216	7.81	0
1	10367	7.91	0
1	10522	8.01	0
1	10673	8.11	0
1	10824	8.21	0
1	10975	8.31	0
1	11126	8.41	0
1	11277	8.51	0
1	11428	8.61	0
1	11579	8.71	0
1	11730	8.81	0
1	11881	8.91	0
1	12036	9.01	0
1	12187	9.11	0
1	12338	9.21	0
1	12489	9.31	0
1	12640	9.41	0
1	12791	9.51	0
1	12942	9.61	0
1	13093	9.71	0
1	13244	9.81	0
1	13395	9.91	0
1	13550	10.01	0
1	13701	10.11	0
1	13852	10.21	0
1	14003	10.31	0
1	14154	10.41	0
1	14305	10.51	0
1	14456	10.61	0
1	14607	10.71	0
1	14758	10.81	0
1	14909	10.91	0
1	15064	11.01	0
1	15215	11.11	0
1	15366	11.21	0
1	15517	11.31	0
1	15668	11.41	0
1	15819	11.51	0
1	15970	11.61	0
1	16121	11.71	0
1	16272	11.81	0
1	16423	11.91	0
1	16578	12.01	0
1	16729	12.11	0
1	16880	12.21	0
1	17031	12.31	0
1	17182	12.41	0
1	17333	12.51	0
1	17484	12.61	0
1	17635	12.71	0
1	17786	12.81	0
1	17937	12.91	0
1	18092	13.01	0
1	18243	13.11	0
1	18394	13.21	0
1	18545	13.31	0
1	18696	13.41	0
1	18847	13.51	0
1	18998	13.61	0
1	19149	13.71	0
1	19300	13.81	0
1	19451	13.91	0
1	19606	14.01	0
1	19757	14.11	0
1	19908	14.21	0
1	20059	14.31	0
1	20210	14.41	0
1	20361	14.51	0
1	20512	14.61	0
1	20663	14.71	0
1	20814	14.81	0
1	20965	14.91	0
1	21120	15.01	0
1	21271	15.11	0
1	21422	15.21	0
1	21573	15.31	0
1	21724	15.41	0
1	21875	15.51	0
1	22026	15.61	0
1	22177	15.71	0
1	22328	15.81	0
1	22479	15.91	0
1	22634	16.01	0
1	22785	16.11	0
1	22936	16.21	0
1	23087	16.31	0
1	23238	16.41	0
1	23389	16.51	0
1	23540	16.61	0
1	23691	16.71	0
1	23842	16.81	0
1	23993	16.91	0
1	24148	17.01	0
1	24299	17.11	0
1	24450	17.21	0
1	24601	17.31	0
1	24752	17.41	0
1	24903	17.51	0
1	25054	17.61	0
1	25205	17.71	0
1	25356	17.81	0
1	25507	17.91	0
1	25662	18.01	0
1	25813	18.11	0
1	25964	18.21	0
1	26115	18.31	0
1	26266	18.41	0
1	26417	18.51	0
1	26568	18.61	0
1	26719	18.71	0
1	26870	18.81	0
1	27021	18.91	0
1	27176	19.01	0
1	27327	19.11	0
1	27478	19.21	0
1	27629	19.31	0
1	27780	19.41	0
1	27931	19.51	0
1	28082	19.61	0
1	28233	19.71	0
1	28384	19.81	0
1	28535	19.91	0
1	28690	20.01	0
1	28841	20.11	0
1	28992	20.21	0
1	29143	20.31	0
1	29294	20.41	0
1	29445	20.51	0
1	29596	20.61	0
1	29747	20.71	0
1	29898	20.81	0
1	30049	20.91	0
1	30204	21.01	0
1	30355	21.11	0
1	30506	21.21	0
1	30657	21.31	0
1	30808	21.41	0
1	30959	21.51	0
1	31110	21.61	0
1	31261	21.71	0
1	31412	21.81	0
1	31563	21.91	0
1	31718	22.01	0
1	31869	22.11	0
1	32020	22.21	0
1	32171	22.31	0
1	32322	22.41	0
1	32473	22.51	0
1	32624	22.61	0
1	32775	22.71	0
1	32926	22.81	0
1	33077	22.91	0
1	33232	23.01	0
1	33383	23.11	0
1	33534	23.21	0
1	33685	23.31	0
1	33836	23.41	0
1	33987	23.51	0
1	34138	23.61	0
1	34289	23.71	0
1	34440	23.81	0
1	34591	23.91	0
1	34746	24.01	0
1	34897	24.11	0
1	35048	24.21	0
1	35199	24.31	0
1	35350	24.41	0
1	35501	24.51	0
1	35652	24.61	0
1	35803	24.71	0
1	35954	24.81	0
1	36105	24.91	0
1	36260	25.01	0
1	36411	25.11	0
1	36562	25.21	0
1	36713	25.31	0
1	36864	25.41	0
1	37015	25.51	0
1	37166	25.61	0
1	37317	25.71	0
1	37468	25.81	0
1	37619	25.91	0
1	37774	26.01	0
1	37925	26.11	0
1	38076	26.21	0
1	38227	26.31	0
1	38378	26.41	0
1	38529	26.51	0
1	38680	26.61	0
1	38831	26.71	0
1	38982	26.81	0
1	39133	26.91	0
1	39288	27.01	0
1	39439	27.11	0
1	39590	27.21	0
1	39741	27.31	0
1	39892	27.41	0
1	40043	27.51	0
1	40194	27.61	0
1	40345	27.71	0
1	40496	27.81	0
1	40647	27.91	0
1	40802	28.01	0
1	40953	28.11	0
1	41104	28.21	0
1	41255	28.31	0
1	41406	28.41	0
1	41557	28.51	0
1	41708	28.61	0
1	41859	28.71	0
1	42010	28.81	0
1	42161	28.91	0
1	42316	29.01	0
1	42467	29.11	0
1	42618	29.21	0
1	42769	29.31	0
1	42920	29.41	0
1	43071	29.51	0
1	43222	29.61	0
1	43373	29.71	0
1	43524	29.81	0
1	43675	29.91	0
1	43830	30.01	0
1	43981	30.11	0
1	44132	30.21	0
1	44283	30.31	0
1	44434	30.41	0
1	44585	30.51	0
1	44736	30.61	0
1	44887	30.71	0
1	45038	30.81	0
1	45189	30.91	0
1	45344	31.01	0
1	45495	31.11	0
1	45646	31.21	0
1	45797	31.31	0
1	45948	31.41	0
1	46099	31.51	0
1	46250	31.61	0
1	46401	31.71	0
1	46552	31.81	0
1	46703	31.91	0
1	46858	32.01	0
1	47009	32.11	0
1	47160	32.21	0
1	47311	32.31	0
1	47462	32.41	0
1	47613	32.51	0
1	47764	32.61	0
1	47915	32.71	0
1	48066	32.81	0
1	48217	32.91	0
1	48372	33.01	0
1	48523	33.11	0
1	48674	33.21	0
1	48825	33.31	0
1	48976	33.41	0
1	49127	33.51	0
1	49278	33.61	0
1	49429	33.71	0
1	49580	33.81	0
1	49731	33.91	0
1	49886	34.01	0
1	50037	34.11	0
1	50188	34.21	0
1	50339	34.31	0
1	50490	34.41	0
1	50641	34.51	0
1	50792	34.61	0
1	50943	34.71	0
1	51094	34.81	0
1	51245	34.91	0
1	51400	35.01	0
1	51551	35.11	0
1	51702	35.21	0
1	51853	35.31	0
1	52004	35.41	0
1	52155	35.51	0
1	52306	35.61	0
1	52457	35.71	0
1	52608	35.81	0
1	52759	35.91	0
1	52914	36.01	0
1	53065	36.11	0
1	53216	36.21	0
1	53367	36.31	0
1	53518	36.41	0
1	53669	36.51	0
1	53820	36.61	0
1	53971	36.71	0
1	54122	36.81	0
1	54273	36.91	0
1	54428	37.01	0
1	54579	37.11	0
1	54730	37.21	0
1	54881	37.31	0
1	55032	37.41	0
1	55183	37.51	0
1	55334	37.61	0
1	55485	37.71	0
1	55636	37.81	0
1	55787	37.91	0
1	55942	38.01	0
1	56093	38.11	0
1	56244	38.21	0
1	56395	38.31	0
1	56546	38.41	0
1	56697	38.51	0
1	56848	38.61	0
1	56999	38.71	0
1	57150	38.81	0
1	57301	38.91	0
1	57456	39.01	0
1	57607	39.11	0
1	57758	39.21	0
1	57909	39.31	0
1	58060	39.41	0
1	58211	39.51	0
1	58362	39.61	0
1	58513	39.71	0
1	58664	39.81	0
1	58815	39.91	0
1	58970	40.01	0
1	59121	40.11	0
1	59272	40.21	0
1	59423	40.31	0
1	59574	40.41	0
1	59725	40.51	0
1	59876	40.61	0
1	60027	40.71	0
1	60178	40.81	0
1	60329	40.91	0
1	60484	41.01	0
1	60635	41.11	0
1	60786	41.21	0
1	60937	41.31	0
1	61088	41.41	0
1	61239	41.51	0
1	61390	41.61	0
1	61541	41.71	0
1	61692	41.81	0
1	61843	41.91	0
1	61998	42.01	0
1	62149	42.11	0
1	62300	42.21	0
1	62451	42.31	0
1	62602	42.41	0
1	62753	42.51	0
1	62904	42.61	0
1	63055	42.71	0
1	63206	42.81	0
1	63357	42.91	0
1	63512	43.01	0
1	63663	43.11	0
1	63814	43.21	0
1	63965	43.31	0
1	64116	43.41	0
1	64267	43.51	0
1	64418	43.61	0
1	64569	43.71	0
1	64720	43.81	0
1	64871	43.91	0
1	65026	44.01	0
1	65177	44.11	0
1	65328	44.21	0
1	65479	44.31	0
1	65630	44.41	0
1	65781	44.51	0
1	65932	44.61	0
1	66083	44.71	0
1	66234	44.81	0
1	66385	44.91	0
1	66540	45.01	0
1	66691	45.11	0
1	66842	45.21	0
1	66993	45.31	0
1	67144	45.41	0
1	67295	45.51	0
1	67446	45.61	0
1	67597	45.71	0
1	67748	45.81	0
1	67899	45.91	0
1	68054	46.01	0
1	68205	46.11	0
1	68356	46.21	0
1	68507	46.31	0
1	68658	46.41	0
1	68809	46.51	0
1	68960	46.61	0
1	69111	46.71	0
1	69262	46.81	0
1	69413	46.91	0
1	69568	47.01	0
1	69719	47.11	0
1	69870	47.21	0
1	70021	47.31	0
1	70172	47.41	0
1	70323	47.51	0
1	70474	47.61	0
1	70625	47.71	0
1	70776	47.81	0
1	70927	47.91	0
1	71082	48.01	0
1	71233	48.11	0
1	71384	48.21	0
1	71535	48.31	0
1	71686	48.41	0
1	71837	48.51	0
1	71988	48.61	0
1	72139	48.71	0
1	72290	48.81	0
1	72441	48.91	0
1	72596	49.01	0
1	72747	49.11	0
1	72898	49.21	0
1	73049	49.31	0
1	73200	49.41	0
1	73351	49.51	0
1	73502	49.61	0
1	73653	49.71	0
1	73804	49.81	0
1	73955	49.91	0
1	74110	50.01	0
1	74261	50.11	0
1	74412	50.21	0
1	74563	50.31	0
1	74714	50.41	0
1	74865	50.51	0
1	75016	50.61	0
1	75167	50.71	0
1	75318	50.81	0
1	75469	50.91	0
1	75624	51.01	0
1	75775	51.11	0
1	75926	51.21	0
1	76077	51.31	0
1	76228	51.41	0
1	76379	51.51	0
1	76530	51.61	0
1	76681	51.71	0
1	76832	51.81	0
1	76983	51.91	0
1	77138	52.01	0
1	77289	52.11	0
1	77440	52.21	0
1	77591	52.31	0
1	77742	52.41	0
1	77893	52.51	0
1	78044	52.61	0
1	78195	52.71	0
1	78346	52.81	0
1	78497	52.91	0
1	78652	53.01	0
1	78803	53.11	0
1	78954	53.21	0
1	79105	53.31	0
1	79256	53.41	0
1	79407	53.51	0
1	79558	53.61	0
1	79709	53.71	0
1	79860	53.81	0
1	80011	53.91	0
1	80166	54.01	0
1	80317	54.11	0
1	80468	54.21	0
1	80619	54.31	0
1	80770	54.41	0
1	80921	54.51	0
1	81072	54.61	0
1	81223	54.71	0
1	81374	54.81	0
1	81525	54.91	0
1	81680	55.01	0
1	81831	55.11	0
1	81982	55.21	0
1	82133	55.31	0
1	82284	55.41	0
1	82435	55.51	0
1	82586	55.61	0
1	82737	55.71	0
1	82888	55.81	0
1	83039	55.91	0
1	83194	56.01	0
1	83345	56.11	0
1	83496	56.21	0
1	83647	56.31	0
1	83798	56.41	0
1	83949	56.51	0
1	84100	56.61	0
1	84251	56.71	0
1	84402	56.81	0
1	84553	56.91	0
1	84708	57.01	0
1	84859	57.11	0
1	85010	57.21	0
1	85161	57.31	0
1	85312	57.41	0
1	85463	57.51	0
1	85614	57.61	0
1	85765	57.71	0
1	85916	57.81	0
1	86067	57.91	0
1	86222	58.01	0
1	86373	58.11	0
1	86524	58.21	0
1	86675	58.31	0
1	86826	58.41	0
1	86977	58.51	0
1	87128	58.61	0
1	87279	58.71	0
1	87430	58.81	0
1	87581	58.91	0
1	87736	59.01	0
1	87887	59.11	0
1	88038	59.21	0
1	88189	59.31	0
1	88340	59.41	0
1	88491	59.51	0
1	88642	59.61	0
1	88793	59.71	0
1	88944	59.81	0
1	89095	59.91	0
2	113	1.11	0
2	263	1.21	0
2	413	1.31	0
2	563	1.41	0
2	713	1.51	0
2	863	1.61	0
2	1013	1.71	0
2	1163	1.81	0
2	1313	1.91	0
2	1467	2.01	0
2	1617	2.11	0
2	1767	2.21	0
2	1917	2.31	0
2	2067	2.41	0
2	2217	2.51	0
2	2367	2.61	0
2	2517	2.71	0
2	2667	2.81	0
2	2817	2.91	0
2	2971	3.01	0
2	3121	3.11	0
2	3271	3.21	0
2	3421	3.31	0
2	3571	3.41	0
2	3721	3.51	0
2	3871	3.61	0
2	4021	3.71	0
2	4171	3.81	0
2	4321	3.91	0
2	4475	4.01	0
2	4625	4.11	0
2	4775	4.21	0
2	4925	4.31	0
2	5075	4.41	0
2	5225	4.51	0
2	5375	4.61	0
2	5525	4.71	0
2	5675	4.81	0
2	5825	4.91	0
2	5980	5.01	0
2	6131	5.11	0
2	6282	5.21	0
2	6433	5.31	0
2	6584	5.41	0
2	6735	5.51	0
2	6886	5.61	0
2	7037	5.71	0
2	7188	5.81	0
2	7339	5.91	0
2	7494	6.01	0
2	7645	6.11	0
2	7796	6.21	0
2	7947	6.31	0
2	8098	6.41	0
2	8249	6.51	0
2	8400	6.61	0
2	8551	6.71	0
2	8702	6.81	0
2	8853	6.91	0
2	9008	7.01	0
2	9159	7.11	0
2	9310	7.21	0
2	9461	7.31	0
2	9612	7.41	0
2	9763	7.51	0
2	9914	7.61	0
2	10065	7.71	0
2	10216	7.81	0
2	10367	7.91	0
2	10522	8.01	0
2	10673	8.11	0
2	10824	8.21	0
2	10975	8.31	0
2	11126	8.41	0
2	11277	8.51	0
2	11428	8.61	0
2	11579	8.71	0
2	11730	8.81	0
2	11881	8.91	0
2	12036	9.01	0
2	12187	9.11	0
2	12338	9.21	0
2	12489	9.31	0
2	12640	9.41	0
2	12791	9.51	0
2	12942	9.61	0
2	13093	9.71	0
2	13244	9.81	0
2	13395	9.91	0
2	13550	10.01	0
2	13701	10.11	0
2	13852	10.21	0
2	14003	10.31	0
2	14154	10.41	0
2	14305	10.51	0
2	14456	10.61	0
2	14607	10.71	0
2	14758	10.81	0
2	14909	10.91	0
2	15064	11.01	0
2	15215	11.11	0
2	15366	11.21	0
2	15517	11.31	0
2	15668	11.41	0
2	15819	11.51	0
2	15970	11.61	0
2	16121	11.71	0
2	16272	11.81	0
2	16423	11.91	0
2	16578	12.01	0
2	16729	12.11	0
2	16880	12.21	0
2	17031	12.31	0
2	17182	12.41	0
2	17333	12.51	0
2	17484	12.61	0
2	17635	12.71	0
2	17786	12.81	0
2	17937	12.91	0
2	18092	13.01	0
2	18243	13.11	0
2	18394	13.21	0
2	18545	13.31	0
2	18696	13.41	0
2	18847	13.51	0
2	18998	13.61	0
2	19149	13.71	0
2	19300	13.81	0
2	19451	13.91	0
2	19606	14.01	0
2	19757	14.11	0
2	19908	14.21	0
2	20059	14.31	0
2	20210	14.41	0
2	20361	14.51	0
2	20512	14.61	0
2	20663	14.71	0
2	20814	14.81	0
2	20965	14.91	0
2	21120	15.01	0
2	21271	15.11	0
2	21422	15.21	0
2	21573	15.31	0
2	21724	15.41	0
2	21875	15.51	0
2	22026	15.61	0
2	22177	15.71	0
2	22328	15.81	0
2	22479	15.91	0
2	22634	16.01	0
2	22785	16.11	0
2	22936	16.21	0
2	23087	16.31	0
2	23238	16.41	0
2	23389	16.51	0
2	23540	16.61	0
2	23691	16.71	0
2	23842	16.81	0
2	23993	16.91	0
2	24148	17.01	0
2	24299	17.11	0
2	24450	17.21	0
2	24601	17.31	0
2	24752	17.41	0
2	24903	17.51	0
2	25054	17.61	0
2	25205	17.71	0
2	25356	17.81	0
2	25507	17.91	0
2	25662	18.01	0
2	25813	18.11	0
2	25964	18.21	0
2	26115	18.31	0
2	26266	18.41	0
2	26417	18.51	0
2	26568	18.61	0
2	26719	18.71	0
2	26870	18.81	0
2	27021	18.91	0
2	27176	19.01	0
2	27327	19.11	0
2	27478	19.21	0
2	27629	19.31	0
2	27780	19.41	0
2	27931	19.51	0
2	28082	19.61	0
2	28233	19.71	0
2	28384	19.81	0
2	28535	19.91	0
2	28690	20.01	0
2	28841	20.11	0
2	28992	20.21	0
2	29143	20.31	0
2	29294	20.41	0
2	29445	20.51	0
2	29596	20.61	0
2	29747	20.71	0
2	29898	20.81	0
2	30049	20.91	0
2	30204	21.01	0
2	30355	21.11	0
2	30506	21.21	0
2	30657	21.31	0
2	30808	21.41	0
2	30959	21.51	0
2	31110	21.61	0
2	31261	21.71	0
2	31412	21.81	0
2	31563	21.91	0
2	31718	22.01	0
2	31869	22.11	0
2	32020	22.21	0
2	32171	22.31	0
2	32322	22.41	0
2	32473	22.51	0
2	32624	22.61	0
2	32775	22.71	0
2	32926	22.81	0
2	33077	22.91	0
2	33232	23.01	0
2	33383	23.11	0
2	33534	23.21	0
2	33685	23.31	0
2	33836	23.41	0
2	33987	23.51	0
2	34138	23.61	0
2	34289	23.71	0
2	34440	23.81	0
2	34591	23.91	0
2	34746	24.01	0
2	34897	24.11	0
2	35048	24.21	0
2	35199	24.31	0
2	35350	24.41	0
2	35501	24.51	0
2	35652	24.61	0
2	35803	24.71	0
2	35954	24.81	0
2	36105	24.91	0
2	36260	25.01	0
2	36411	25.11	0
2	36562	25.21	0
2	36713	25.31	0
2	36864	25.41	0
2	37015	25.51	0
2	37166	25.61	0
2	37317	25.71	0
2	37468	25.81	0
2	37619	25.91	0
2	37774	26.01	0
2	37925	26.11	0
2	38076	26.21	0
2	38227	26.31	0
2	38378	26.41	0
2	38529	26.51	0
2	38680	26.61	0
2	38831	26.71	0
2	38982	26.81	0
2	39133	26.91	0
2	39288	27.01	0
2	39439	27.11	0
2	39590	27.21	0
2	39741	27.31	0
2	39892	27.41	0
2	40043	27.51	0
2	40194	27.61	0
2	40345	27.71	0
2	40496	27.81	0
2	40647	27.91	0
2	40802	28.01	0
2	40953	28.11	0
2	41104	28.21	0
2	41255	28.31	0
2	41406	28.41	0
2	41557	28.51	0
2	41708	28.61	0
2	41859	28.71	0
2	42010	28.81	0
2	42161	28.91	0
2	42316	29.01	0
2	42467	29.11	0
2	42618	29.21	0
2	42769	29.31	0
2	42920	29.41	0
2	43071	29.51	0
2	43222	29.61	0
2	43373	29.71	0
2	43524	29.81	0
2	43675	29.91	0
2	43830	30.01	0
2	43981	30.11	0
2	44132	30.21	0
2	44283	30.31	0
2	44434	30.41	0
2	44585	30.51	0
2	44736	30.61	0
2	44887	30.71	0
2	45038	30.81	0
2	45189	30.91	0
2	45344	31.01	0
2	45495	31.11	0
2	45646	31.21	0
2	45797	31.31	0
2	45948	31.41	0
2	46099	31.51	0
2	46250	31.61	0
2	46401	31.71	0
2	46552	31.81	0
2	46703	31.91	0
2	46858	32.01	0
2	47009	32.11	0
2	47160	32.21	0
2	47311	32.31	0
2	47462	32.41	0
2	47613	32.51	0
2	47764	32.61	0
2	47915	32.71	0
2	48066	32.81	0
2	48217	32.91	0
2	48372	33.01	0
2	48523	33.11	0
2	48674	33.21	0
2	48825	33.31	0
2	48976	33.41	0
2	49127	33.51	0
2	49278	33.61	0
2	49429	33.71	0
2	49580	33.81	0
2	49731	33.91	0
2	49886	34.01	0
2	50037	34.11	0
2	50188	34.21	0
2	50339	34.31	0
2	50490	34.41	0
2	50641	34.51	0
2	50792	34.61	0
2	50943	34.71	0
2	51094	34.81	0
2	51245	34.91	0
2	51400	35.01	0
2	51551	35.11	0
2	51702	35.21	0
2	51853	35.31	0
2	52004	35.41	0
2	52155	35.51	0
2	52306	35.61	0
2	52457	35.71	0
2	52608	35.81	0
2	52759	35.91	0
2	52914	36.01	0
2	53065	36.11	0
2	53216	36.21	0
2	53367	36.31	0
2	53518	36.41	0
2	53669	36.51	0
2	53820	36.61	0
2	53971	36.71	0
2	54122	36.81	0
2	54273	36.91	0
2	54428	37.01	0
2	54579	37.11	0
2	54730	37.21	0
2	54881	37.31	0
2	55032	37.41	0
2	55183	37.51	0
2	55334	37.61	0
2	55485	37.71	0
2	55636	37.81	0
2	55787	37.91	0
2	55942	38.01	0
2	56093	38.11	0
2	56244	38.21	0
2	56395	38.31	0
2	56546	38.41	0
2	56697	38.51	0
2	56848	38.61	0
2	56999	38.71	0
2	57150	38.81	0
2	57301	38.91	0
2	57456	39.01	0
2	57607	39.11	0
2	57758	39.21	0
2	57909	39.31	0
2	58060	39.41	0
2	58211	39.51	0
2	58362	39.61	0
2	58513	39.71	0
2	58664	39.81	0
2	58815	39.91	0
2	58970	40.01	0
2	59121	40.11	0
2	59272	40.21	0
2	59423	40.31	0
2	59574	40.41	0
2	59725	40.51	0
2	59876	40.61	0
2	60027	40.71	0
2	60178	40.81	0
2	60329	40.91	0
2	60484	41.01	0
2	60635	41.11	0
2	60786	41.21	0
2	60937	41.31	0
2	61088	41.41	0
2	61239	41.51	0
2	61390	41.61	0
2	61541	41.71	0
2	61692	41.81	0
2	61843	41.91	0
2	61998	42.01	0
2	62149	42.11	0
2	62300	42.21	0
2	62451	42.31	0
2	62602	42.41	0
2	62753	42.51	0
2	62904	42.61	0
2	63055	42.71	0
2	63206	42.81	0
2	63357	42.91	0
2	63512	43.01	0
2	63663	43.11	0
2	63814	43.21	0
2	63965	43.31	0
2	64116	43.41	0
2	64267	43.51	0
2	64418	43.61	0
2	64569	43.71	0
2	64720	43.81	0
2	64871	43.91	0
2	65026	44.01	0
2	65177	44.11	0
2	65328	44.21	0
2	65479	44.31	0
2	65630	44.41	0
2	65781	44.51	0
2	65932	44.61	0
2	66083	44.71	0
2	66234	44.81	0
2	66385	44.91	0
2	66540	45.01	0
2	66691	45.11	0
2	66842	45.21	0
2	66993	45.31	0
2	67144	45.41	0
2	67295	45.51	0
2	67446	45.61	0
2	67597	45.71	0
2	67748	45.81	0
2	67899	45.91	0
2	68054	46.01	0
2	68205	46.11	0
2	68356	46.21	0
2	68507	46.31	0
2	68658	46.41	0
2	68809	46.51	0
2	68960	46.61	0
2	69111	46.71	0
2	69262	46.81	0
2	69413	46.91	0
2	69568	47.01	0
2	69719	47.11	0
2	69870	47.21	0
2	70021	47.31	0
2	70172	47.41	0
2	70323	47.51	0
2	70474	47.61	0
2	70625	47.71	0
2	70776	47.81	0
2	70927	47.91	0
2	71082	48.01	0
2	71233	48.11	0
2	71384	48.21	0
2	71535	48.31	0
2	71686	48.41	0
2	71837	48.51	0
2	71988	48.61	0
2	72139	48.71	0
2	72290	48.81	0
2	72441	48.91	0
2	72596	49.01	0
2	72747	49.11	0
2	72898	49.21	0
2	73049	49.31	0
2	73200	49.41	0
2	73351	49.51	0
2	73502	49.61	0
2	73653	49.71	0
2	73804	49.81	0
2	73955	49.91	0
2	74110	50.01	0
2	74261	50.11	0
2	74412	50.21	0
2	74563	50.31	0
2	74714	50.41	0
2	74865	50.51	0
2	75016	50.61	0
2	75167	50.71	0
2	75318	50.81	0
2	75469	50.91	0
2	75624	51.01	0
2	75775	51.11	0
2	75926	51.21	0
2	76077	51.31	0
2	76228	51.41	0
2	76379	51.51	0
2	76530	51.61	0
2	76681	51.71	0
2	76832	51.81	0
2	76983	51.91	0
2	77138	52.01	0
2	77289	52.11	0
2	77440	52.21	0
2	77591	52.31	0
2	77742	52.41	0
2	77893	52.51	0
2	78044	52.61	0
2	78195	52.71	0
2	78346	52.81	0
2	78497	52.91	0
2	78652	53.01	0
2	78803	53.11	0
2	78954	53.21	0
2	79105	53.31	0
2	79256	53.41	0
2	79407	53.51	0
2	79558	53.61	0
2	79709	53.71	0
2	79860	53.81	0
2	80011	53.91	0
2	80166	54.01	0
2	80317	54.11	0
2	80468	54.21	0
2	80619	54.31	0
2	80770	54.41	0
2	80921	54.51	0
2	81072	54.61	0
2	81223	54.71	0
2	81374	54.81	0
2	81525	54.91	0
2	81680	55.01	0
2	81831	55.11	0
2	81982	55.21	0
2	82133	55.31	0
2	82284	55.41	0
2	82435	55.51	0
2	82586	55.61	0
2	82737	55.71	0
2	82888	55.81	0
2	83039	55.91	0
2	83194	56.01	0
2	83345	56.11	0
2	83496	56.21	0
2	83647	56.31	0
2	83798	56.41	0
2	83949	56.51	0
2	84100	56.61	0
2	84251	56.71	0
2	84402	56.81	0
2	84553	56.91	0
2	84708	57.01	0
2	84859	57.11	0
2	85010	57.21	0
2	85161	57.31	0
2	85312	57.41	0
2	85463	57.51	0
2	85614	57.61	0
2	85765	57.71	0
2	85916	57.81	0
2	86067	57.91	0
2	86222	58.01	0
2	86373	58.11	0
2	86524	58.21	0
2	86675	58.31	0
2	86826	58.41	0
2	86977	58.51	0
2	87128	58.61	0
2	87279	58.71	0
2	87430	58.81	0
2	87581	58.91	0
2	87736	59.01	0
2	87887	59.11	0
2	88038	59.21	0
2	88189	59.31	0
2	88340	59.41	0
2	88491	59.51	0
2	88642	59.61	0
2	88793	59.71	0
2	88944	59.81	0
2	89095	59.91	0
3	113	1.11	-0.000358191
3	263	1.21	-0.000681704
3	413	1.31	-0.00093487
3	563	1.41	-0.00112579
3	713	1.51	-0.00126221
3	863	1.61	-0.00135149
3	1013	1.71	-0.00140049
3	1163	1.81	-0.00141557
3	1313	1.91	-0.00140255
3	1467	2.01	-0.00136671
3	1617	2.11	-0.0013128
3	1767	2.21	-0.00124502
3	1917	2.31	-0.0011671
3	2067	2.41	-0.00108223
3	2217	2.51	-0.000993208
3	2367	2.61	-0.000902362
3	2517	2.71	-0.000811651
3	2667	2.81	-0.000722679
3	2817	2.91	-0.000636729
3	2971	3.01	-0.0005548
3	3121	3.11	-0.000477639
3	3271	3.21	-0.000405773
3	3421	3.31	-0.00033954
3	3571	3.41	-0.000279116
3	3721	3.51	-0.000224541
3	3871	3.61	-0.000175743
3	4021	3.71	-0.00013256
3	4171	3.81	-9.47571e-05
3	4321	3.91	-6.2046e-05
3	4475	4.01	-3.40986e-05
3	4625	4.11	-1.05605e-05
3	4775	4.21	8.93844e-06
3	4925	4.31	2.4774e-05
3	5075	4.41	3.73203e-05
3	5225	4.51	4.69433e-05
3	5375	4.61	5.39956e-05
3	5525	4.71	5.88124e-05
3	5675	4.81	6.1709e-05
3	5825	4.91	6.29785e-05
3	5980	5.01	6.28903e-05
3	6131	5.11	0.00688718
3	6282	5.21	0.0746459
3	6433	5.31	0.190099
3	6584	5.41	0.340538
3	6735	5.51	0.513051
3	6886	5.61	0.690283
3	7037	5.71	0.83575
3	7188	5.81	0.955083
3	7339	5.91	1.05298
3	7494	6.01	1.13329
3	7645	6.11	1.19917
3	7796	6.21	1.25321
3	7947	6.31	1.29755
3	8098	6.41	1.33392
3	8249	6.51	1.3636
3	8400	6.61	1.37021
3	8551	6.71	1.32727
3	8702	6.81	1.23738
3	8853	6.91	1.10404
3	9008	7.01	0.93147
3	9159	7.11	0.724512
3	9310	7.21	0.488542
3	9461	7.31	0.229305
3	9612	7.41	-0.0448439
3	9763	7.51	-0.306265
3	9914	7.61	-0.520722
3	10065	7.71	-0.696651
3	10216	7.81	-0.840974
3	10367	7.91	-0.959369
3	10522	8.01	-1.05649
3	10673	8.11	-1.13617
3	10824	8.21	-1.20153
3	10975	8.31	-1.25515
3	11126	8.41	-1.29914
3	11277	8.51	-1.33523
3	11428	8.61	-1.36483
3	11579	8.71	-1.38911
3	11730	8.81	-1.40903
3	11881	8.91	-1.42538
3	12036	9.01	-1.43878
3	12187	9.11	-1.44978
3	12338	9.21	-1.4588
3	12489	9.31	-1.4662
3	12640	9.41	-1.47227
3	12791	9.51	-1.46962
3	12942	9.61	-1.39679
3	13093	9.71	-1.25878
3	13244	9.81	-1.0661
3	13395	9.91	-0.829229
3	13550	10.01	-0.55853
3	13701	10.11	-0.264039
3	13852	10.21	0.0394309
3	14003	10.31	0.301825
3	14154	10.41	0.517079
3	14305	10.51	0.693662
3	14456	10.61	0.838522
3	14607	10.71	0.957358
3	14758	10.81	1.05484
3	14909	10.91	1.13482
3	15064	11.01	1.20042
3	15215	11.11	1.25424
3	15366	11.21	1.29839
3	15517	11.31	1.33461
3	15668	11.41	1.36432
3	15819	11.51	1.3887
3	15970	11.61	1.40869
3	16121	11.71	1.4251
3	16272	11.81	1.43855
3	16423	11.91	1.43456
3	16578	12.01	1.36235
3	16729	12.11	1.22999
3	16880	12.21	1.04615
3	17031	12.31	0.819673
3	17182	12.41	0.559519
3	17333	12.51	0.274538
3	17484	12.61	-0.0223415
3	17635	12.71	-0.287805
3	17786	12.81	-0.505578
3	17937	12.91	-0.684228
3	18092	13.01	-0.830783
3	18243	13.11	-0.951009
3	18394	13.21	-1.04964
3	18545	13.31	-1.13054
3	18696	13.41	-1.19692
3	18847	13.51	-1.25137
3	18998	13.61	-1.29603
3	19149	13.71	-1.33268
3	19300	13.81	-1.36274
3	19451	13.91	-1.3874
3	19606	14.01	-1.40763
3	19757	14.11	-1.42422
3	19908	14.21	-1.43783
3	20059	14.31	-1.449
3	20210	14.41	-1.45426
3	20361	14.51	-1.40674
3	20512	14.61	-1.29386
3	20663	14.71	-1.12484
3	20814	14.81	-0.909123
3	20965	14.91	-0.656177
3	21120	15.01	-0.37539
3	21271	15.11	-0.0780586
3	21422	15.21	0.205442
3	21573	15.31	0.438012
3	21724	15.41	0.6288
3	21875	15.51	0.785312
3	22026	15.61	0.913707
3	22177	15.71	1.01904
3	22328	15.81	1.10544
3	22479	15.91	1.17632
3	22634	16.01	1.23447
3	22785	16.11	1.28218
3	22936	16.21	1.32131
3	23087	16.31	1.35341
3	23238	16.41	1.37975
3	23389	16.51	1.40135
3	23540	16.61	1.41907
3	23691	16.71	1.43361
3	23842	16.81	1.44554
3	23993	16.91	1.4503
3	24148	17.01	1.39356
3	24299	17.11	1.27333
3	24450	17.21	1.09867
3	24601	17.31	0.878789
3	24752	17.41	0.622979
3	24903	17.51	0.340424
3	25054	17.61	0.0430294
3	25205	17.71	-0.234178
3	25356	17.81	-0.461585
3	25507	17.91	-0.648138
3	25662	18.01	-0.801177
3	25813	18.11	-0.926722
3	25964	18.21	-1.02971
3	26115	18.31	-1.1142
3	26266	18.41	-1.18351
3	26417	18.51	-1.24037
3	26568	18.61	-1.28701
3	26719	18.71	-1.32527
3	26870	18.81	-1.35666
3	27021	18.91	-1.38242
3	27176	19.01	-1.40354
3	27327	19.11	-1.42087
3	27478	19.21	-1.43508
3	27629	19.31	-1.44675
3	27780	19.41	-1.45172
3	27931	19.51	-1.39839
3	28082	19.61	-1.2809
3	28233	19.71	-1.10833
3	28384	19.81	-0.889996
3	28535	19.91	-0.635245
3	28690	20.01	-0.353353
3	28841	20.11	-0.0559802
3	28992	20.21	0.223554
3	29143	20.31	0.45287
3	29294	20.41	0.640989
3	29445	20.51	0.795311
3	29596	20.61	0.92191
3	29747	20.71	1.02576
3	29898	20.81	1.11096
3	30049	20.91	1.18085
3	30204	21.01	1.23819
3	30355	21.11	1.28522
3	30506	21.21	1.32381
3	30657	21.31	1.35546
3	30808	21.41	1.38143
3	30959	21.51	1.40273
3	31110	21.61	1.4202
3	31261	21.71	1.43454
3	31412	21.81	1.4463
3	31563	21.91	1.4512
3	31718	22.01	1.39661
3	31869	22.11	1.2781
3	32020	22.21	1.10476
3	32171	22.31	0.885844
3	32322	22.41	0.630704
3	32473	22.51	0.34856
3	32624	22.61	0.051183
3	32775	22.71	-0.22749
3	32926	22.81	-0.456098
3	33077	22.91	-0.643637
3	33232	23.01	-0.797484
3	33383	23.11	-0.923692
3	33534	23.21	-1.02723
3	33685	23.31	-1.11216
3	33836	23.41	-1.18184
3	33987	23.51	-1.239
3	34138	23.61	-1.28589
3	34289	23.71	-1.32435
3	34440	23.81	-1.35591
3	34591	23.91	-1.38179
3	34746	24.01	-1.40303
3	34897	24.11	-1.42045
3	35048	24.21	-1.43474
3	35199	24.31	-1.44647
3	35350	24.41	-1.45139
3	35501	24.51	-1.39727
3	35652	24.61	-1.27914
3	35803	24.71	-1.10608
3	35954	24.81	-0.887388
3	36105	24.91	-0.632388
3	36260	25.01	-0.350343
3	36411	25.11	-0.0529625
3	36562	25.21	0.22603
3	36713	25.31	0.454901
3	36864	25.41	0.642655
3	37015	25.51	0.796678
3	37166	25.61	0.923031
3	37317	25.71	1.02668
3	37468	25.81	1.11172
3	37619	25.91	1.18147
3	37774	26.01	1.2387
3	37925	26.11	1.28564
3	38076	26.21	1.32415
3	38227	26.31	1.35574
3	38378	26.41	1.38166
3	38529	26.51	1.40292
3	38680	26.61	1.42036
3	38831	26.71	1.43467
3	38982	26.81	1.4464
3	39133	26.91	1.45132
3	39288	27.01	1.39703
3	39439	27.11	1.27875
3	39590	27.21	1.10559
3	39741	27.31	0.886811
3	39892	27.41	0.631764
3	40043	27.51	0.349677
3	40194	27.61	0.0523027
3	40345	27.71	-0.226571
3	40496	27.81	-0.455345
3	40647	27.91	-0.643019
3	40802	28.01	-0.796977
3	40953	28.11	-0.923276
3	41104	28.21	-1.02689
3	41255	28.31	-1.11188
3	41406	28.41	-1.18161
3	41557	28.51	-1.23881
3	41708	28.61	-1.28573
3	41859	28.71	-1.32422
3	42010	28.81	-1.3558
3	42161	28.91	-1.38171
3	42316	29.01	-1.40296
3	42467	29.11	-1.42039
3	42618	29.21	-1.43469
3	42769	29.31	-1.44643
3	42920	29.41	-1.45135
3	43071	29.51	-1.39712
3	43222	29.61	-1.2789
3	43373	29.71	-1.10577
3	43524	29.81	-0.887029
3	43675	29.91	-0.631995
3	43830	30.01	-0.349929
3	43981	30.11	-0.052547
3	44132	30.21	0.226371
3	44283	30.31	0.45518
3	44434	30.41	0.642884
3	44585	30.51	0.796866
3	44736	30.61	0.923185
3	44887	30.71	1.02681
3	45038	30.81	1.11182
3	45189	30.91	1.18156
3	45344	31.01	1.23877
3	45495	31.11	1.2857
3	45646	31.21	1.3242
3	45797	31.31	1.35578
3	45948	31.41	1.38169
3	46099	31.51	1.40294
3	46250	31.61	1.42038
3	46401	31.71	1.43468
3	46552	31.81	1.44642
3	46703	31.91	1.45134
3	46858	32.01	1.39709
3	47009	32.11	1.27884
3	47160	32.21	1.10571
3	47311	32.31	0.886945
3	47462	32.41	0.63191
3	47613	32.51	0.349831
3	47764	32.61	0.0524569
3	47915	32.71	-0.226445
3	48066	32.81	-0.455241
3	48217	32.91	-0.642934
3	48372	33.01	-0.796907
3	48523	33.11	-0.923219
3	48674	33.21	-1.02684
3	48825	33.31	-1.11184
3	48976	33.41	-1.18158
3	49127	33.51	-1.23878
3	49278	33.61	-1.28571
3	49429	33.71	-1.32421
3	49580	33.81	-1.35579
3	49731	33.91	-1.3817
3	49886	34.01	-1.40295
3	50037	34.11	-1.42039
3	50188	34.21	-1.43469
3	50339	34.31	-1.44642
3	50490	34.41	-1.45134
3	50641	34.51	-1.39709
3	50792	34.61	-1.27887
3	50943	34.71	-1.10573
3	51094	34.81	-0.88698
3	51245	34.91	-0.631941
3	51400	35.01	-0.349872
3	51551	35.11	-0.0524898
3	51702	35.21	0.226418
3	51853	35.31	0.455219
3	52004	35.41	0.642916
3	52155	35.51	0.796892
3	52306	35.61	0.923207
3	52457	35.71	1.02683
3	52608	35.81	1.11183
3	52759	35.91	1.18157
3	52914	36.01	1.23878
3	53065	36.11	1.28571
3	53216	36.21	1.3242
3	53367	36.31	1.35579
3	53518	36.41	1.38169
3	53669	36.51	1.40295
3	53820	36.61	1.42038
3	53971	36.71	1.43469
3	54122	36.81	1.44642
3	54273	36.91	1.45134
3	54428	37.01	1.3971
3	54579	37.11	1.27886
3	54730	37.21	1.10572
3	54881	37.31	0.886963
3	55032	37.41	0.63193
3	55183	37.51	0.349852
3	55334	37.61	0.0524781
3	55485	37.71	-0.226427
3	55636	37.81	-0.455227
3	55787	37.91	-0.642922
3	55942	38.01	-0.796898
3	56093	38.11	-0.923211
3	56244	38.21	-1.02683
3	56395	38.31	-1.11184
3	56546	38.41	-1.18157
3	56697	38.51	-1.23878
3	56848	38.61	-1.28571
3	56999	38.71	-1.3242
3	57150	38.81	-1.35579
3	57301	38.91	-1.38169
3	57456	39.01	-1.40295
3	57607	39.11	-1.42038
3	57758	39.21	-1.43469
3	57909	39.31	-1.44642
3	58060	39.41	-1.45134
3	58211	39.51	-1.39709
3	58362	39.61	-1.27886
3	58513	39.71	-1.10572
3	58664	39.81	-0.886973
3	58815	39.91	-0.631933
3	58970	40.01	-0.349864
3	59121	40.11	-0.0524819
3	59272	40.21	0.226424
3	59423	40.31	0.455224
3	59574	40.41	0.64292
3	59725	40.51	0.796896
3	59876	40.61	0.92321
3	60027	40.71	1.02683
3	60178	40.81	1.11184
3	60329	40.91	1.18157
3	60484	41.01	1.23878
3	60635	41.11	1.28571
3	60786	41.21	1.3242
3	60937	41.31	1.35579
3	61088	41.41	1.38169
3	61239	41.51	1.40295
3	61390	41.61	1.42038
3	61541	41.71	1.43469
3	61692	41.81	1.44642
3	61843	41.91	1.45134
3	61998	42.01	1.3971
3	62149	42.11	1.27886
3	62300	42.21	1.10572
3	62451	42.31	0.886966
3	62602	42.41	0.631933
3	62753	42.51	0.349855
3	62904	42.61	0.0524811
3	63055	42.71	-0.226425
3	63206	42.81	-0.455225
3	63357	42.91	-0.64292
3	63512	43.01	-0.796896
3	63663	43.11	-0.92321
3	63814	43.21	-1.02683
3	63965	43.31	-1.11184
3	64116	43.41	-1.18157
3	64267	43.51	-1.23878
3	64418	43.61	-1.28571
3	64569	43.71	-1.3242
3	64720	43.81	-1.35579
3	64871	43.91	-1.38169
3	65026	44.01	-1.40295
3	65177	44.11	-1.42038
3	65328	44.21	-1.43469
3	65479	44.31	-1.44642
3	65630	44.41	-1.45134
3	65781	44.51	-1.39709
3	65932	44.61	-1.27886
3	66083	44.71	-1.10572
3	66234	44.81	-0.886972
3	66385	44.91	-0.631932
3	66540	45.01	-0.349863
3	66691	45.11	-0.0524808
3	66842	45.21	0.226425
3	66993	45.31	0.455225
3	67144	45.41	0.642921
3	67295	45.51	0.796896
3	67446	45.61	0.92321
3	67597	45.71	1.02683
3	67748	45.81	1.11184
3	67899	45.91	1.18157
3	68054	46.01	1.23878
3	68205	46.11	1.28571
3	68356	46.21	1.3242
3	68507	46.31	1.35579
3	68658	46.41	1.38169
3	68809	46.51	1.40295
3	68960	46.61	1.42038
3	69111	46.71	1.43469
3	69262	46.81	1.44642
3	69413	46.91	1.45134
3	69568	47.01	1.3971
3	69719	47.11	1.27886
3	69870	47.21	1.10572
3	70021	47.31	0.886966
3	70172	47.41	0.631933
3	70323	47.51	0.349855
3	70474	47.61	0.0524815
3	70625	47.71	-0.226424
3	70776	47.81	-0.455224
3	70927	47.91	-0.64292
3	71082	48.01	-0.796896
3	71233	48.11	-0.92321
3	71384	48.21	-1.02683
3	71535	48.31	-1.11184
3	71686	48.41	-1.18157
3	71837	48.51	-1.23878
3	71988	48.61	-1.28571
3	72139	48.71	-1.3242
3	72290	48.81	-1.35579
3	72441	48.91	-1.38169
3	72596	49.01	-1.40295
3	72747	49.11	-1.42038
3	72898	49.21	-1.43469
3	73049	49.31	-1.44642
3	73200	49.41	-1.45134
3	73351	49.51	-1.39709
3	73502	49.61	-1.27886
3	73653	49.71	-1.10572
3	73804	49.81	-0.886972
3	73955	49.91	-0.631932
3	74110	50.01	-0.349863
3	74261	50.11	-0.0524807
3	74412	50.21	0.226425
3	74563	50.31	0.455225
3	74714	50.41	0.642921
3	74865	50.51	0.796896
3	75016	50.61	0.92321
3	75167	50.71	1.02683
3	75318	50.81	1.11184
3	75469	50.91	1.18157
3	75624	51.01	1.23878
3	75775	51.11	1.28571
3	75926	51.21	1.3242
3	76077	51.31	1.35579
3	76228	51.41	1.38169
3	76379	51.51	1.40295
3	76530	51.61	1.42038
3	76681	51.71	1.43469
3	76832	51.81	1.44642
3	76983	51.91	1.45134
3	77138	52.01	1.3971
3	77289	52.11	1.27886
3	77440	52.21	1.10572
3	77591	52.31	0.886966
3	77742	52.41	0.631933
3	77893	52.51	0.349855
3	78044	52.61	0.0524815
3	78195	52.71	-0.226424
3	78346	52.81	-0.455224
3	78497	52.91	-0.64292
3	78652	53.01	-0.796896
3	78803	53.11	-0.92321
3	78954	53.21	-1.02683
3	79105	53.31	-1.11184
3	79256	53.41	-1.18157
3	79407	53.51	-1.23878
3	79558	53.61	-1.28571
3	79709	53.71	-1.3242
3	79860	53.81	-1.35579
3	80011	53.91	-1.38169
3	80166	54.01	-1.40295
3	80317	54.11	-1.42038
3	80468	54.21	-1.43469
3	80619	54.31	-1.44642
3	80770	54.41	-1.45134
3	80921	54.51	-1.39709
3	81072	54.61	-1.27886
3	81223	54.71	-1.10572
3	81374	54.81	-0.886972
3	81525	54.91	-0.631932
3	81680	55.01	-0.349863
3	81831	55.11	-0.0524807
3	81982	55.21	0.226425
3	82133	55.31	0.455225
3	82284	55.41	0.642921
3	82435	55.51	0.796896
3	82586	55.61	0.92321
3	82737	55.71	1.02683
3	82888	55.81	1.11184
3	83039	55.91	1.18157
3	83194	56.01	1.23878
3	83345	56.11	1.28571
3	83496	56.21	1.3242
3	83647	56.31	1.35579
3	83798	56.41	1.38169
3	83949	56.51	1.40295
3	84100	56.61	1.42038
3	84251	56.71	1.43469
3	84402	56.81	1.44642
3	84553	56.91	1.45134
3	84708	57.01	1.3971
3	84859	57.11	1.27886
3	85010	57.21	1.10572
3	85161	57.31	0.886966
3	85312	57.41	0.631933
3	85463	57.51	0.349855
3	85614	57.61	0.0524815
3	85765	57.71	-0.226424
3	85916	57.81	-0.455224
3	86067	57.91	-0.64292
3	86222	58.01	-0.796896
3	86373	58.11	-0.92321
3	86524	58.21	-1.02683
3	86675	58.31	-1.11184
3	86826	58.41	-1.18157
3	86977	58.51	-1.23878
3	87128	58.61	-1.28571
3	87279	58.71	-1.3242
3	87430	58.81	-1.35579
3	87581	58.91	-1.38169
3	87736	59.01	-1.40295
3	87887	59.11	-1.42038
3	88038	59.21	-1.43469
3	88189	59.31	-1.44642
3	88340	59.41	-1.45134
3	88491	59.51	-1.39709
3	88642	59.61	-1.27886
3	88793	59.71	-1.10572
3	88944	59.81	-0.886972
3	89095	59.91	-0.631932
4	113	1.11	-0.00218518
4	263	1.21	-0.00213419
4	413	1.31	-0.00205408
4	563	1.41	-0.00195152
4	713	1.51	-0.00183238
4	863	1.61	-0.00170178
4	1013	1.71	-0.00156412
4	1163	1.81	-0.00142314
4	1313	1.91	-0.00128196
4	1467	2.01	-0.00114315
4	1617	2.11	-0.00100877
4	1767	2.21	-0.000880447
4	1917	2.31	-0.000759381
4	2067	2.41	-0.000646445
4	2217	2.51	-0.000542204
4	2367	2.61	-0.000446965
4	2517	2.71	-0.000360819
4	2667	2.81	-0.000283678
4	2817	2.91	-0.000215307
4	2971	3.01	-0.000155357
4	3121	3.11	-0.000103391
4	3271	3.21	-5.89069e-05
4	3421	3.31	-2.13575e-05
4	3571	3.41	9.82919e-06
4	3721	3.51	3.52368e-05
4	3871	3.61	5.54479e-05
4	4021	3.71	7.10335e-05
4	4171	3.81	8.25451e-05
4	4321	3.91	9.05081e-05
4	4475	4.01	9.54172e-05
4	4625	4.11	9.7733e-05
4	4775	4.21	9.78798e-05
4	4925	4.31	9.62447e-05
4	5075	4.41	9.31771e-05
4	5225	4.51	8.89894e-05
4	5375	4.61	8.39579e-05
4	5525	4.71	7.83245e-05
4	5675	4.81	7.22983e-05
4	5825	4.91	6.6058e-05
4	5980	5.01	5.9754e-05
4	6131	5.11	0.348154
4	6282	5.21	0.687312
4	6433	5.31	1.00645
4	6584	5.41	1.29637
4	6735	5.51	1.5
4	6886	5.61	1.5
4	7037	5.71	1.5
4	7188	5.81	1.5
4	7339	5.91	1.5
4	7494	6.01	1.5
4	7645	6.11	1.5
4	7796	6.21	1.5
4	7947	6.31	1.5
4	8098	6.41	1.5
4	8249	6.51	1.49192
4	8400	6.61	1.22651
4	8551	6.71	0.923018
4	8702	6.81	0.589086
4	8853	6.91	0.232356
4	9008	7.01	-0.139213
4	9159	7.11	-0.517613
4	9310	7.21	-0.895148
4	9461	7.31	-1.26397
4	9612	7.41	-1.5
4	9763	7.51	-1.5
4	9914	7.61	-1.5
4	10065	7.71	-1.5
4	10216	7.81	-1.5
4	10367	7.91	-1.5
4	10522	8.01	-1.5
4	10673	8.11	-1.5
4	10824	8.21	-1.5
4	10975	8.31	-1.5
4	11126	8.41	-1.5
4	11277	8.51	-1.5
4	11428	8.61	-1.5
4	11579	8.71	-1.5
4	11730	8.81	-1.5
4	11881	8.91	-1.5
4	12036	9.01	-1.5
4	12187	9.11	-1.5
4	12338	9.21	-1.5
4	12489	9.31	-1.5
4	12640	9.41	-1.5
4	12791	9.51	-1.17849
4	12942	9.61	-0.739823
4	13093	9.71	-0.290475
4	13244	9.81	0.158711
4	13395	9.91	0.597343
4	13550	10.01	1.01627
4	13701	10.11	1.40688
4	13852	10.21	1.5
4	14003	10.31	1.5
4	14154	10.41	1.5
4	14305	10.51	1.5
4	14456	10.61	1.5
4	14607	10.71	1.5
4	14758	10.81	1.5
4	14909	10.91	1.5
4	15064	11.01	1.5
4	15215	11.11	1.5
4	15366	11.21	1.5
4	15517	11.31	1.5
4	15668	11.41	1.5
4	15819	11.51	1.5
4	15970	11.61	1.5
4	16121	11.71	1.5
4	16272	11.81	1.5
4	16423	11.91	1.14206
4	16578	12.01	0.732698
4	16729	12.11	0.307654
4	16880	12.21	-0.122946
4	17031	12.31	-0.549155
4	17182	12.41	-0.962117
4	17333	12.51	-1.35327
4	17484	12.61	-1.5
4	17635	12.71	-1.5
4	17786	12.81	-1.5
4	17937	12.91	-1.5
4	18092	13.01	-1.5
4	18243	13.11	-1.5
4	18394	13.21	-1.5
4	18545	13.31	-1.5
4	18696	13.41	-1.5
4	18847	13.51	-1.5
4	18998	13.61	-1.5
4	19149	13.71	-1.5
4	19300	13.81	-1.5
4	19451	13.91	-1.5
4	19606	14.01	-1.5
4	19757	14.11	-1.5
4	19908	14.21	-1.5
4	20059	14.31	-1.5
4	20210	14.41	-1.30079
4	20361	14.51	-0.888396
4	20512	14.61	-0.457896
4	20663	14.71	-0.0203058
4	20814	14.81	0.414388
4	20965	14.91	0.836546
4	21120	15.01	1.23767
4	21271	15.11	1.5
4	21422	15.21	1.5
4	21573	15.31	1.5
4	21724	15.41	1.5
4	21875	15.51	1.5
4	22026	15.61	1.5
4	22177	15.71	1.5
4	22328	15.81	1.5
4	22479	15.91	1.5
4	22634	16.01	1.5
4	22785	16.11	1.5
4	22936	16.21	1.5
4	23087	16.31	1.5
4	23238	16.41	1.5
4	23389	16.51	1.5
4	23540	16.61	1.5
4	23691	16.71	1.5
4	23842	16.81	1.5
4	23993	16.91	1.24512
4	24148	17.01	0.833462
4	24299	17.11	0.404725
4	24450	17.21	-0.0306459
4	24601	17.31	-0.462424
4	24752	17.41	-0.88151
4	24903	17.51	-1.27913
4	25054	17.61	-1.5
4	25205	17.71	-1.5
4	25356	17.81	-1.5
4	25507	17.91	-1.5
4	25662	18.01	-1.5
4	25813	18.11	-1.5
4	25964	18.21	-1.5
4	26115	18.31	-1.5
4	26266	18.41	-1.5
4	26417	18.51	-1.5
4	26568	18.61	-1.5
4	26719	18.71	-1.5
4	26870	18.81	-1.5
4	27021	18.91	-1.5
4	27176	19.01	-1.5
4	27327	19.11	-1.5
4	27478	19.21	-1.5
4	27629	19.31	-1.5
4	27780	19.41	-1.26568
4	27931	19.51	-0.853817
4	28082	19.61	-0.424368
4	28233	19.71	0.0117583
4	28384	19.81	0.444676
4	28535	19.91	0.864834
4	28690	20.01	1.26381
4	28841	20.11	1.5
4	28992	20.21	1.5
4	29143	20.31	1.5
4	29294	20.41	1.5
4	29445	20.51	1.5
4	29596	20.61	1.5
4	29747	20.71	1.5
4	29898	20.81	1.5
4	30049	20.91	1.5
4	30204	21.01	1.5
4	30355	21.11	1.5
4	30506	21.21	1.5
4	30657	21.31	1.5
4	30808	21.41	1.5
4	30959	21.51	1.5
4	31110	21.61	1.5
4	31261	21.71	1.5
4	31412	21.81	1.5
4	31563	21.91	1.25809
4	31718	22.01	0.846238
4	31869	22.11	0.417115
4	32020	22.21	-0.0187954
4	32171	22.31	-0.451228
4	32322	22.41	-0.871052
4	32473	22.51	-1.26946
4	32624	22.61	-1.5
4	32775	22.71	-1.5
4	32926	22.81	-1.5
4	33077	22.91	-1.5
4	33232	23.01	-1.5
4	33383	23.11	-1.5
4	33534	23.21	-1.5
4	33685	23.31	-1.5
4	33836	23.41	-1.5
4	33987	23.51	-1.5
4	34138	23.61	-1.5
4	34289	23.71	-1.5
4	34440	23.81	-1.5
4	34591	23.91	-1.5
4	34746	24.01	-1.5
4	34897	24.11	-1.5
4	35048	24.21	-1.5
4	35199	24.31	-1.5
4	35350	24.41	-1.26088
4	35501	24.51	-0.849086
4	35652	24.61	-0.41978
4	35803	24.71	0.0161479
4	35954	24.81	0.448824
4	36105	24.91	0.868709
4	36260	25.01	1.26739
4	36411	25.11	1.5
4	36562	25.21	1.5
4	36713	25.31	1.5
4	36864	25.41	1.5
4	37015	25.51	1.5
4	37166	25.61	1.5
4	37317	25.71	1.5
4	37468	25.81	1.5
4	37619	25.91	1.5
4	37774	26.01	1.5
4	37925	26.11	1.5
4	38076	26.21	1.5
4	38227	26.31	1.5
4	38378	26.41	1.5
4	38529	26.51	1.5
4	38680	26.61	1.5
4	38831	26.71	1.5
4	38982	26.81	1.5
4	39133	26.91	1.25987
4	39288	27.01	0.847993
4	39439	27.11	0.418817
4	39590	27.21	-0.0171665
4	39741	27.31	-0.449689
4	39892	27.41	-0.869614
4	40043	27.51	-1.26813
4	40194	27.61	-1.5
4	40345	27.71	-1.5
4	40496	27.81	-1.5
4	40647	27.91	-1.5
4	40802	28.01	-1.5
4	40953	28.11	-1.5
4	41104	28.21	-1.5
4	41255	28.31	-1.5
4	41406	28.41	-1.5
4	41557	28.51	-1.5
4	41708	28.61	-1.5
4	41859	28.71	-1.5
4	42010	28.81	-1.5
4	42161	28.91	-1.5
4	42316	29.01	-1.5
4	42467	29.11	-1.5
4	42618	29.21	-1.5
4	42769	29.31	-1.5
4	42920	29.41	-1.26022
4	43071	29.51	-0.848435
4	43222	29.61	-0.419148
4	43373	29.71	0.0167524
4	43524	29.81	0.449395
4	43675	29.91	0.869242
4	43830	30.01	1.26789
4	43981	30.11	1.5
4	44132	30.21	1.5
4	44283	30.31	1.5
4	44434	30.41	1.5
4	44585	30.51	1.5
4	44736	30.61	1.5
4	44887	30.71	1.5
4	45038	30.81	1.5
4	45189	30.91	1.5
4	45344	31.01	1.5
4	45495	31.11	1.5
4	45646	31.21	1.5
4	45797	31.31	1.5
4	45948	31.41	1.5
4	46099	31.51	1.5
4	46250	31.61	1.5
4	46401	31.71	1.5
4	46552	31.81	1.5
4	46703	31.91	1.26012
4	46858	32.01	0.848235
4	47009	32.11	0.419052
4	47160	32.21	-0.0169422
4	47311	32.31	-0.449477
4	47462	32.41	-0.869416
4	47613	32.51	-1.26795
4	47764	32.61	-1.5
4	47915	32.71	-1.5
4	48066	32.81	-1.5
4	48217	32.91	-1.5
4	48372	33.01	-1.5
4	48523	33.11	-1.5
4	48674	33.21	-1.5
4	48825	33.31	-1.5
4	48976	33.41	-1.5
4	49127	33.51	-1.5
4	49278	33.61	-1.5
4	49429	33.71	-1.5
4	49580	33.81	-1.5
4	49731	33.91	-1.5
4	49886	34.01	-1.5
4	50037	34.11	-1.5
4	50188	34.21	-1.5
4	50339	34.31	-1.5
4	50490	34.41	-1.26013
4	50641	34.51	-0.848345
4	50792	34.61	-0.419061
4	50943	34.71	0.0168356
4	51094	34.81	0.449474
4	51245	34.91	0.869316
4	51400	35.01	1.26795
4	51551	35.11	1.5
4	51702	35.21	1.5
4	51853	35.31	1.5
4	52004	35.41	1.5
4	52155	35.51	1.5
4	52306	35.61	1.5
4	52457	35.71	1.5
4	52608	35.81	1.5
4	52759	35.91	1.5
4	52914	36.01	1.5
4	53065	36.11	1.5
4	53216	36.21	1.5
4	53367	36.31	1.5
4	53518	36.41	1.5
4	53669	36.51	1.5
4	53820	36.61	1.5
4	53971	36.71	1.5
4	54122	36.81	1.5
4	54273	36.91	1.26015
4	54428	37.01	0.848268
4	54579	37.11	0.419084
4	54730	37.21	-0.0169113
4	54881	37.31	-0.449448
4	55032	37.41	-0.869389
4	55183	37.51	-1.26793
4	55334	37.61	-1.5
4	55485	37.71	-1.5
4	55636	37.81	-1.5
4	55787	37.91	-1.5
4	55942	38.01	-1.5
4	56093	38.11	-1.5
4	56244	38.21	-1.5
4	56395	38.31	-1.5
4	56546	38.41	-1.5
4	56697	38.51	-1.5
4	56848	38.61	-1.5
4	56999	38.71	-1.5
4	57150	38.81	-1.5
4	57301	38.91	-1.5
4	57456	39.01	-1.5
4	57607	39.11	-1.5
4	57758	39.21	-1.5
4	57909	39.31	-1.5
4	58060	39.41	-1.26012
4	58211	39.51	-0.848333
4	58362	39.61	-0.419049
4	58513	39.71	0.0168471
4	58664	39.81	0.449485
4	58815	39.91	0.869326
4	58970	40.01	1.26796
4	59121	40.11	1.5
4	59272	40.21	1.5
4	59423	40.31	1.5
4	59574	40.41	1.5
4	59725	40.51	1.5
4	59876	40.61	1.5
4	60027	40.71	1.5
4	60178	40.81	1.5
4	60329	40.91	1.5
4	60484	41.01	1.5
4	60635	41.11	1.5
4	60786	41.21	1.5
4	60937	41.31	1.5
4	61088	41.41	1.5
4	61239	41.51	1.5
4	61390	41.61	1.5
4	61541	41.71	1.5
4	61692	41.81	1.5
4	61843	41.91	1.26016
4	61998	42.01	0.848273
4	62149	42.11	0.419089
4	62300	42.21	-0.0169071
4	62451	42.31	-0.449444
4	62602	42.41	-0.869385
4	62753	42.51	-1.26792
4	62904	42.61	-1.5
4	63055	42.71	-1.5
4	63206	42.81	-1.5
4	63357	42.91	-1.5
4	63512	43.01	-1.5
4	63663	43.11	-1.5
4	63814	43.21	-1.5
4	63965	43.31	-1.5
4	64116	43.41	-1.5
4	64267	43.51	-1.5
4	64418	43.61	-1.5
4	64569	43.71	-1.5
4	64720	43.81	-1.5
4	64871	43.91	-1.5
4	65026	44.01	-1.5
4	65177	44.11	-1.5
4	65328	44.21	-1.5
4	65479	44.31	-1.5
4	65630	44.41	-1.26011
4	65781	44.51	-0.848331
4	65932	44.61	-0.419047
4	66083	44.71	0.0168487
4	66234	44.81	0.449486
4	66385	44.91	0.869327
4	66540	45.01	1.26796
4	66691	45.11	1.5
4	66842	45.21	1.5
4	66993	45.31	1.5
4	67144	45.41	1.5
4	67295	45.51	1.5
4	67446	45.61	1.5
4	67597	45.71	1.5
4	67748	45.81	1.5
4	67899	45.91	1.5
4	68054	46.01	1.5
4	68205	46.11	1.5
4	68356	46.21	1.5
4	68507	46.31	1.5
4	68658	46.41	1.5
4	68809	46.51	1.5
4	68960	46.61	1.5
4	69111	46.71	1.5
4	69262	46.81	1.5
4	69413	46.91	1.26016
4	69568	47.01	0.848273
4	69719	47.11	0.419089
4	69870	47.21	-0.0169065
4	70021	47.31	-0.449444
4	70172	47.41	-0.869385
4	70323	47.51	-1.26792
4	70474	47.61	-1.5
4	70625	47.71	-1.5
4	70776	47.81	-1.5
4	70927	47.91	-1.5
4	71082	48.01	-1.5
4	71233	48.11	-1.5
4	71384	48.21	-1.5
4	71535	48.31	-1.5
4	71686	48.41	-1.5
4	71837	48.51	-1.5
4	71988	48.61	-1.5
4	72139	48.71	-1.5
4	72290	48.81	-1.5
4	72441	48.91	-1.5
4	72596	49.01	-1.5
4	72747	49.11	-1.5
4	72898	49.21	-1.5
4	73049	49.31	-1.5
4	73200	49.41	-1.26011
4	73351	49.51	-0.848331
4	73502	49.61	-0.419047
4	73653	49.71	0.0168489
4	73804	49.81	0.449486
4	73955	49.91	0.869327
4	74110	50.01	1.26797
4	74261	50.11	1.5
4	74412	50.21	1.5
4	74563	50.31	1.5
4	74714	50.41	1.5
4	74865	50.51	1.5
4	75016	50.61	1.5
4	75167	50.71	1.5
4	75318	50.81	1.5
4	75469	50.91	1.5
4	75624	51.01	1.5
4	75775	51.11	1.5
4	75926	51.21	1.5
4	76077	51.31	1.5
4	76228	51.41	1.5
4	76379	51.51	1.5
4	76530	51.61	1.5
4	76681	51.71	1.5
4	76832	51.81	1.5
4	76983	51.91	1.26016
4	77138	52.01	0.848273
4	77289	52.11	0.419089
4	77440	52.21	-0.0169064
4	77591	52.31	-0.449444
4	77742	52.41	-0.869385
4	77893	52.51	-1.26792
4	78044	52.61	-1.5
4	78195	52.71	-1.5
4	78346	52.81	-1.5
4	78497	52.91	-1.5
4	78652	53.01	-1.5
4	78803	53.11	-1.5
4	78954	53.21	-1.5
4	79105	53.31	-1.5
4	79256	53.41	-1.5
4	79407	53.51	-1.5
4	79558	53.61	-1.5
4	79709	53.71	-1.5
4	79860	53.81	-1.5
4	80011	53.91	-1.5
4	80166	54.01	-1.5
4	80317	54.11	-1.5
4	80468	54.21	-1.5
4	80619	54.31	-1.5
4	80770	54.41	-1.26011
4	80921	54.51	-0.848331
4	81072	54.61	-0.419047
4	81223	54.71	0.0168489
4	81374	54.81	0.449486
4	81525	54.91	0.869327
4	81680	55.01	1.26797
4	81831	55.11	1.5
4	81982	55.21	1.5
4	82133	55.31	1.5
4	82284	55.41	1.5
4	82435	55.51	1.5
4	82586	55.61	1.5
4	82737	55.71	1.5
4	82888	55.81	1.5
4	83039	55.91	1.5
4	83194	56.01	1.5
4	83345	56.11	1.5
4	83496	56.21	1.5
4	83647	56.31	1.5
4	83798	56.41	1.5
4	83949	56.51	1.5
4	84100	56.61	1.5
4	84251	56.71	1.5
4	84402	56.81	1.5
4	84553	56.91	1.26016
4	84708	57.01	0.848274
4	84859	57.11	0.419089
4	85010	57.21	-0.0169064
4	85161	57.31	-0.449444
4	85312	57.41	-0.869385
4	85463	57.51	-1.26792
4	85614	57.61	-1.5
4	85765	57.71	-1.5
4	85916	57.81	-1.5
4	86067	57.91	-1.5
4	86222	58.01	-1.5
4	86373	58.11	-1.5
4	86524	58.21	-1.5
4	86675	58.31	-1.5
4	86826	58.41	-1.5
4	86977	58.51	-1.5
4	87128	58.61	-1.5
4	87279	58.71	-1.5
4	87430	58.81	-1.5
4	87581	58.91	-1.5
4	87736	59.01	-1.5
4	87887	59.11	-1.5
4	88038	59.21	-1.5
4	88189	59.31	-1.5
4	88340	59.41	-1.26011
4	88491	59.51	-0.848331
4	88642	59.61	-0.419047
4	88793	59.71	0.0168489
4	88944	59.81	0.449486
4	89095	59.91	0.869327
5	113	1.11	27.78
5	263	1.21	27.7799
5	413	1.31	27.7798
5	563	1.41	27.7797
5	713	1.51	27.7796
5	863	1.61	27.7795
5	1013	1.71	27.7794
5	1163	1.81	27.7792
5	1313	1.91	27.7791
5	1467	2.01	27.7789
5	1617	2.11	27.7788
5	1767	2.21	27.7787
5	1917	2.31	27.7785
5	2067	2.41	27.7784
5	2217	2.51	27.7783
5	2367	2.61	27.7782
5	2517	2.71	27.7782
5	2667	2.81	27.7781
5	2817	2.91	27.778
5	2971	3.01	27.7779
5	3121	3.11	27.7779
5	3271	3.21	27.7779
5	3421	3.31	27.7778
5	3571	3.41	27.7778
5	3721	3.51	27.7778
5	3871	3.61	27.7777
5	4021	3.71	27.7777
5	4171	3.81	27.7777
5	4321	3.91	27.7777
5	4475	4.01	27.7777
5	4625	4.11	27.7777
5	4775	4.21	27.7777
5	4925	4.31	27.7777
5	5075	4.41	27.7777
5	5225	4.51	27.7777
5	5375	4.61	27.7777
5	5525	4.71	27.7777
5	5675	4.81	27.7777
5	5825	4.91	27.7777
5	5980	5.01	27.7777
5	6131	5.11	27.7778
5	6282	5.21	27.782
5	6433	5.31	27.7958
5	6584	5.41	27.823
5	6735	5.51	27.8667
5	6886	5.61	27.9281
5	7037	5.71	28.0053
5	7188	5.81	28.0957
5	7339	5.91	28.1967
5	7494	6.01	28.3066
5	7645	6.11	28.4236
5	7796	6.21	28.5466
5	7947	6.31	28.6744
5	8098	6.41	28.8062
5	8249	6.51	28.9413
5	8400	6.61	29.0784
5	8551	6.71	29.2134
5	8702	6.81	29.3414
5	8853	6.91	29.458
5	9008	7.01	29.559
5	9159	7.11	29.6409
5	9310	7.21	29.7003
5	9461	7.31	29.7349
5	9612	7.41	29.7425
5	9763	7.51	29.7232
5	9914	7.61	29.6804
5	10065	7.71	29.6184
5	10216	7.81	29.5406
5	10367	7.91	29.4498
5	10522	8.01	29.3483
5	10673	8.11	29.2382
5	10824	8.21	29.1208
5	10975	8.31	28.9976
5	11126	8.41	28.8696
5	11277	8.51	28.7377
5	11428	8.61	28.6025
5	11579	8.71	28.4646
5	11730	8.81	28.3246
5	11881	8.91	28.1828
5	12036	9.01	28.0395
5	12187	9.11	27.895
5	12338	9.21	27.7495
5	12489	9.31	27.6032
5	12640	9.41	27.4562
5	12791	9.51	27.3088
5	12942	9.61	27.1655
5	13093	9.71	27.0331
5	13244	9.81	26.9176
5	13395	9.91	26.824
5	13550	10.01	26.7559
5	13701	10.11	26.7164
5	13852	10.21	26.7071
5	14003	10.31	26.7259
5	14154	10.41	26.7682
5	14305	10.51	26.83
5	14456	10.61	26.9075
5	14607	10.71	26.9981
5	14758	10.81	27.0994
5	14909	10.91	27.2094
5	15064	11.01	27.3266
5	15215	11.11	27.4497
5	15366	11.21	27.5776
5	15517	11.31	27.7095
5	15668	11.41	27.8446
5	15819	11.51	27.9824
5	15970	11.61	28.1224
5	16121	11.71	28.2642
5	16272	11.81	28.4075
5	16423	11.91	28.5516
5	16578	12.01	28.6914
5	16729	12.11	28.8206
5	16880	12.21	28.9337
5	17031	12.31	29.026
5	17182	12.41	29.0936
5	17333	12.51	29.1338
5	17484	12.61	29.1446
5	17635	12.71	29.1273
5	17786	12.81	29.0862
5	17937	12.91	29.0255
5	18092	13.01	28.9488
5	18243	13.11	28.8589
5	18394	13.21	28.7582
5	18545	13.31	28.6487
5	18696	13.41	28.5319
5	18847	13.51	28.4091
5	18998	13.61	28.2814
5	19149	13.71	28.1498
5	19300	13.81	28.0148
5	19451	13.91	27.8771
5	19606	14.01	27.7372
5	19757	14.11	27.5955
5	19908	14.21	27.4523
5	20059	14.31	27.3079
5	20210	14.41	27.1625
5	20361	14.51	27.0193
5	20512	14.61	26.8846
5	20663	14.71	26.7643
5	20814	14.81	26.6635
5	20965	14.91	26.5865
5	21120	15.01	26.5364
5	21271	15.11	26.5154
5	21422	15.21	26.5237
5	21573	15.31	26.5574
5	21724	15.41	26.612
5	21875	15.51	26.6837
5	22026	15.61	26.7695
5	22177	15.71	26.8669
5	22328	15.81	26.9737
5	22479	15.91	27.0882
5	22634	16.01	27.2092
5	22785	16.11	27.3353
5	22936	16.21	27.4657
5	23087	16.31	27.5997
5	23238	16.41	27.7365
5	23389	16.51	27.8757
5	23540	16.61	28.0169
5	23691	16.71	28.1596
5	23842	16.81	28.3036
5	23993	16.91	28.4487
5	24148	17.01	28.591
5	24299	17.11	28.724
5	24450	17.21	28.8419
5	24601	17.31	28.9398
5	24752	17.41	29.0136
5	24903	17.51	29.0603
5	25054	17.61	29.0777
5	25205	17.71	29.0664
5	25356	17.81	29.0301
5	25507	17.91	28.9733
5	25662	18.01	28.8998
5	25813	18.11	28.8126
5	25964	18.21	28.7141
5	26115	18.31	28.6064
5	26266	18.41	28.491
5	26417	18.51	28.3694
5	26568	18.61	28.2428
5	26719	18.71	28.1119
5	26870	18.81	27.9776
5	27021	18.91	27.8405
5	27176	19.01	27.701
5	27327	19.11	27.5597
5	27478	19.21	27.4168
5	27629	19.31	27.2726
5	27780	19.41	27.1275
5	27931	19.51	26.9848
5	28082	19.61	26.8512
5	28233	19.71	26.7324
5	28384	19.81	26.6334
5	28535	19.91	26.5584
5	28690	20.01	26.5105
5	28841	20.11	26.4917
5	28992	20.21	26.502
5	29143	20.31	26.5373
5	29294	20.41	26.5932
5	29445	20.51	26.6661
5	29596	20.61	26.7528
5	29747	20.71	26.8509
5	29898	20.81	26.9583
5	30049	20.91	27.0733
5	30204	21.01	27.1946
5	30355	21.11	27.3211
5	30506	21.21	27.4518
5	30657	21.31	27.586
5	30808	21.41	27.723
5	30959	21.51	27.8624
5	31110	21.61	28.0036
5	31261	21.71	28.1465
5	31412	21.81	28.2906
5	31563	21.91	28.4357
5	31718	22.01	28.5782
5	31869	22.11	28.7117
5	32020	22.21	28.8301
5	32171	22.31	28.9287
5	32322	22.41	29.0033
5	32473	22.51	29.0507
5	32624	22.61	29.069
5	32775	22.71	29.0583
5	32926	22.81	29.0226
5	33077	22.91	28.9664
5	33232	23.01	28.8933
5	33383	23.11	28.8064
5	33534	23.21	28.7082
5	33685	23.31	28.6007
5	33836	23.41	28.4855
5	33987	23.51	28.3641
5	34138	23.61	28.2375
5	34289	23.71	28.1068
5	34440	23.81	27.9725
5	34591	23.91	27.8355
5	34746	24.01	27.6961
5	34897	24.11	27.5548
5	35048	24.21	27.4119
5	35199	24.31	27.2678
5	35350	24.41	27.1227
5	35501	24.51	26.9801
5	35652	24.61	26.8466
5	35803	24.71	26.728
5	35954	24.81	26.6293
5	36105	24.91	26.5546
5	36260	25.01	26.5069
5	36411	25.11	26.4885
5	36562	25.21	26.499
5	36713	25.31	26.5346
5	36864	25.41	26.5907
5	37015	25.51	26.6637
5	37166	25.61	26.7505
5	37317	25.71	26.8487
5	37468	25.81	26.9561
5	37619	25.91	27.0713
5	37774	26.01	27.1927
5	37925	26.11	27.3192
5	38076	26.21	27.4499
5	38227	26.31	27.5841
5	38378	26.41	27.7212
5	38529	26.51	27.8605
5	38680	26.61	28.0018
5	38831	26.71	28.1447
5	38982	26.81	28.2888
5	39133	26.91	28.4339
5	39288	27.01	28.5765
5	39439	27.11	28.71
5	39590	27.21	28.8285
5	39741	27.31	28.9272
5	39892	27.41	29.0018
5	40043	27.51	29.0494
5	40194	27.61	29.0678
5	40345	27.71	29.0572
5	40496	27.81	29.0216
5	40647	27.91	28.9654
5	40802	28.01	28.8924
5	40953	28.11	28.8056
5	41104	28.21	28.7074
5	41255	28.31	28.5999
5	41406	28.41	28.4847
5	41557	28.51	28.3633
5	41708	28.61	28.2368
5	41859	28.71	28.106
5	42010	28.81	27.9718
5	42161	28.91	27.8348
5	42316	29.01	27.6954
5	42467	29.11	27.5541
5	42618	29.21	27.4113
5	42769	29.31	27.2671
5	42920	29.41	27.122
5	43071	29.51	26.9795
5	43222	29.61	26.846
5	43373	29.71	26.7274
5	43524	29.81	26.6287
5	43675	29.91	26.554
5	43830	30.01	26.5064
5	43981	30.11	26.488
5	44132	30.21	26.4986
5	44283	30.31	26.5342
5	44434	30.41	26.5903
5	44585	30.51	26.6633
5	44736	30.61	26.7502
5	44887	30.71	26.8484
5	45038	30.81	26.9559
5	45189	30.91	27.071
5	45344	31.01	27.1924
5	45495	31.11	27.3189
5	45646	31.21	27.4497
5	45797	31.31	27.5839
5	45948	31.41	27.7209
5	46099	31.51	27.8603
5	46250	31.61	28.0016
5	46401	31.71	28.1444
5	46552	31.81	28.2886
5	46703	31.91	28.4337
5	46858	32.01	28.5762
5	47009	32.11	28.7097
5	47160	32.21	28.8283
5	47311	32.31	28.9269
5	47462	32.41	29.0016
5	47613	32.51	29.0492
5	47764	32.61	29.0676
5	47915	32.71	29.0571
5	48066	32.81	29.0215
5	48217	32.91	28.9653
5	48372	33.01	28.8923
5	48523	33.11	28.8055
5	48674	33.21	28.7073
5	48825	33.31	28.5998
5	48976	33.41	28.4846
5	49127	33.51	28.3632
5	49278	33.61	28.2367
5	49429	33.71	28.1059
5	49580	33.81	27.9717
5	49731	33.91	27.8347
5	49886	34.01	27.6953
5	50037	34.11	27.554
5	50188	34.21	27.4112
5	50339	34.31	27.2671
5	50490	34.41	27.1219
5	50641	34.51	26.9794
5	50792	34.61	26.8459
5	50943	34.71	26.7273
5	51094	34.81	26.6287
5	51245	34.91	26.554
5	51400	35.01	26.5063
5	51551	35.11	26.488
5	51702	35.21	26.4985
5	51853	35.31	26.5341
5	52004	35.41	26.5903
5	52155	35.51	26.6633
5	52306	35.61	26.7501
5	52457	35.71	26.8483
5	52608	35.81	26.9558
5	52759	35.91	27.0709
5	52914	36.01	27.1923
5	53065	36.11	27.3189
5	53216	36.21	27.4496
5	53367	36.31	27.5838
5	53518	36.41	27.7209
5	53669	36.51	27.8603
5	53820	36.61	28.0015
5	53971	36.71	28.1444
5	54122	36.81	28.2885
5	54273	36.91	28.4337
5	54428	37.01	28.5762
5	54579	37.11	28.7097
5	54730	37.21	28.8283
5	54881	37.31	28.9269
5	55032	37.41	29.0016
5	55183	37.51	29.0492
5	55334	37.61	29.0676
5	55485	37.71	29.057
5	55636	37.81	29.0214
5	55787	37.91	28.9653
5	55942	38.01	28.8923
5	56093	38.11	28.8054
5	56244	38.21	28.7072
5	56395	38.31	28.5998
5	56546	38.41	28.4846
5	56697	38.51	28.3632
5	56848	38.61	28.2367
5	56999	38.71	28.1059
5	57150	38.81	27.9717
5	57301	38.91	27.8347
5	57456	39.01	27.6953
5	57607	39.11	27.554
5	57758	39.21	27.4112
5	57909	39.31	27.267
5	58060	39.41	27.1219
5	58211	39.51	26.9794
5	58362	39.61	26.8459
5	58513	39.71	26.7273
5	58664	39.81	26.6286
5	58815	39.91	26.554
5	58970	40.01	26.5063
5	59121	40.11	26.488
5	59272	40.21	26.4985
5	59423	40.31	26.5341
5	59574	40.41	26.5903
5	59725	40.51	26.6633
5	59876	40.61	26.7501
5	60027	40.71	26.8483
5	60178	40.81	26.9558
5	60329	40.91	27.0709
5	60484	41.01	27.1923
5	60635	41.11	27.3189
5	60786	41.21	27.4496
5	60937	41.31	27.5838
5	61088	41.41	27.7209
5	61239	41.51	27.8603
5	61390	41.61	28.0015
5	61541	41.71	28.1444
5	61692	41.81	28.2885
5	61843	41.91	28.4337
5	61998	42.01	28.5762
5	62149	42.11	28.7097
5	62300	42.21	28.8283
5	62451	42.31	28.9269
5	62602	42.41	29.0016
5	62753	42.51	29.0492
5	62904	42.61	29.0676
5	63055	42.71	29.057
5	63206	42.81	29.0214
5	63357	42.91	28.9653
5	63512	43.01	28.8923
5	63663	43.11	28.8054
5	63814	43.21	28.7072
5	63965	43.31	28.5997
5	64116	43.41	28.4846
5	64267	43.51	28.3632
5	64418	43.61	28.2367
5	64569	43.71	28.1059
5	64720	43.81	27.9717
5	64871	43.91	27.8347
5	65026	44.01	27.6953
5	65177	44.11	27.554
5	65328	44.21	27.4112
5	65479	44.31	27.267
5	65630	44.41	27.1219
5	65781	44.51	26.9794
5	65932	44.61	26.8459
5	66083	44.71	26.7273
5	66234	44.81	26.6286
5	66385	44.91	26.554
5	66540	45.01	26.5063
5	66691	45.11	26.488
5	66842	45.21	26.4985
5	66993	45.31	26.5341
5	67144	45.41	26.5903
5	67295	45.51	26.6633
5	67446	45.61	26.7501
5	67597	45.71	26.8483
5	67748	45.81	26.9558
5	67899	45.91	27.0709
5	68054	46.01	27.1923
5	68205	46.11	27.3189
5	68356	46.21	27.4496
5	68507	46.31	27.5838
5	68658	46.41	27.7209
5	68809	46.51	27.8603
5	68960	46.61	28.0015
5	69111	46.71	28.1444
5	69262	46.81	28.2885
5	69413	46.91	28.4337
5	69568	47.01	28.5762
5	69719	47.11	28.7097
5	69870	47.21	28.8283
5	70021	47.31	28.9269
5	70172	47.41	29.0016
5	70323	47.51	29.0492
5	70474	47.61	29.0676
5	70625	47.71	29.057
5	70776	47.81	29.0214
5	70927	47.91	28.9653
5	71082	48.01	28.8923
5	71233	48.11	28.8054
5	71384	48.21	28.7072
5	71535	48.31	28.5997
5	71686	48.41	28.4846
5	71837	48.51	28.3632
5	71988	48.61	28.2367
5	72139	48.71	28.1059
5	72290	48.81	27.9717
5	72441	48.91	27.8347
5	72596	49.01	27.6953
5	72747	49.11	27.554
5	72898	49.21	27.4112
5	73049	49.31	27.267
5	73200	49.41	27.1219
5	73351	49.51	26.9794
5	73502	49.61	26.8459
5	73653	49.71	26.7273
5	73804	49.81	26.6286
5	73955	49.91	26.554
5	74110	50.01	26.5063
5	74261	50.11	26.488
5	74412	50.21	26.4985
5	74563	50.31	26.5341
5	74714	50.41	26.5903
5	74865	50.51	26.6633
5	75016	50.61	26.7501
5	75167	50.71	26.8483
5	75318	50.81	26.9558
5	75469	50.91	27.0709
5	75624	51.01	27.1923
5	75775	51.11	27.3189
5	75926	51.21	27.4496
5	76077	51.31	27.5838
5	76228	51.41	27.7209
5	76379	51.51	27.8603
5	76530	51.61	28.0015
5	76681	51.71	28.1444
5	76832	51.81	28.2885
5	76983	51.91	28.4337
5	77138	52.01	28.5762
5	77289	52.11	28.7097
5	77440	52.21	28.8283
5	77591	52.31	28.9269
5	77742	52.41	29.0016
5	77893	52.51	29.0492
5	78044	52.61	29.0676
5	78195	52.71	29.057
5	78346	52.81	29.0214
5	78497	52.91	28.9653
5	78652	53.01	28.8923
5	78803	53.11	28.8054
5	78954	53.21	28.7072
5	79105	53.31	28.5997
5	79256	53.41	28.4846
5	79407	53.51	28.3632
5	79558	53.61	28.2367
5	79709	53.71	28.1059
5	79860	53.81	27.9717
5	80011	53.91	27.8347
5	80166	54.01	27.6953
5	80317	54.11	27.554
5	80468	54.21	27.4112
5	80619	54.31	27.267
5	80770	54.41	27.1219
5	80921	54.51	26.9794
5	81072	54.61	26.8459
5	81223	54.71	26.7273
5	81374	54.81	26.6286
5	81525	54.91	26.554
5	81680	55.01	26.5063
5	81831	55.11	26.488
5	81982	55.21	26.4985
5	82133	55.31	26.5341
5	82284	55.41	26.5903
5	82435	55.51	26.6633
5	82586	55.61	26.7501
5	82737	55.71	26.8483
5	82888	55.81	26.9558
5	83039	55.91	27.0709
5	83194	56.01	27.1923
5	83345	56.11	27.3189
5	83496	56.21	27.4496
5	83647	56.31	27.5838
5	83798	56.41	27.7209
5	83949	56.51	27.8603
5	84100	56.61	28.0015
5	84251	56.71	28.1444
5	84402	56.81	28.2885
5	84553	56.91	28.4337
5	84708	57.01	28.5762
5	84859	57.11	28.7097
5	85010	57.21	28.8283
5	85161	57.31	28.9269
5	85312	57.41	29.0016
5	85463	57.51	29.0492
5	85614	57.61	29.0676
5	85765	57.71	29.057
5	85916	57.81	29.0214
5	86067	57.91	28.9653
5	86222	58.01	28.8923
5	86373	58.11	28.8054
5	86524	58.21	28.7072
5	86675	58.31	28.5997
5	86826	58.41	28.4846
5	86977	58.51	28.3632
5	87128	58.61	28.2367
5	87279	58.71	28.1059
5	87430	58.81	27.9717
5	87581	58.91	27.8347
5	87736	59.01	27.6953
5	87887	59.11	27.554
5	88038	59.21	27.4112
5	88189	59.31	27.267
5	88340	59.41	27.1219
5	88491	59.51	26.9794
5	88642	59.61	26.8459
5	88793	59.71	26.7273
5	88944	59.81	26.6286
5	89095	59.91	26.554
6	113	1.11	37.9402
6	263	1.21	40.7182
6	413	1.31	43.4962
6	563	1.41	46.2742
6	713	1.51	49.0521
6	863	1.61	51.8301
6	1013	1.71	54.608
6	1163	1.81	57.386
6	1313	1.91	60.1639
6	1467	2.01	62.9418
6	1617	2.11	65.7197
6	1767	2.21	68.4975
6	1917	2.31	71.2754
6	2067	2.41	74.0532
6	2217	2.51	76.8311
6	2367	2.61	79.6089
6	2517	2.71	82.3867
6	2667	2.81	85.1645
6	2817	2.91	87.9423
6	2971	3.01	90.7201
6	3121	3.11	93.4979
6	3271	3.21	96.2757
6	3421	3.31	99.0535
6	3571	3.41	101.831
6	3721	3.51	104.609
6	3871	3.61	107.387
6	4021	3.71	110.165
6	4171	3.81	112.942
6	4321	3.91	115.72
6	4475	4.01	118.498
6	4625	4.11	121.276
6	4775	4.21	124.053
6	4925	4.31	126.831
6	5075	4.41	129.609
6	5225	4.51	132.387
6	5375	4.61	135.165
6	5525	4.71	137.942
6	5675	4.81	140.72
6	5825	4.91	143.498
6	5980	5.01	146.276
6	6131	5.11	149.053
6	6282	5.21	151.831
6	6433	5.31	154.61
6	6584	5.41	157.391
6	6735	5.51	160.175
6	6886	5.61	162.965
6	7037	5.71	165.761
6	7188	5.81	168.566
6	7339	5.91	171.381
6	7494	6.01	174.206
6	7645	6.11	177.043
6	7796	6.21	179.891
6	7947	6.31	182.752
6	8098	6.41	185.626
6	8249	6.51	188.513
6	8400	6.61	191.414
6	8551	6.71	194.329
6	8702	6.81	197.257
6	8853	6.91	200.197
6	9008	7.01	203.148
6	9159	7.11	206.108
6	9310	7.21	209.075
6	9461	7.31	212.047
6	9612	7.41	215.021
6	9763	7.51	217.995
6	9914	7.61	220.965
6	10065	7.71	223.93
6	10216	7.81	226.888
6	10367	7.91	229.838
6	10522	8.01	232.778
6	10673	8.11	235.707
6	10824	8.21	238.625
6	10975	8.31	241.531
6	11126	8.41	244.425
6	11277	8.51	247.305
6	11428	8.61	250.172
6	11579	8.71	253.025
6	11730	8.81	255.865
6	11881	8.91	258.69
6	12036	9.01	261.501
6	12187	9.11	264.298
6	12338	9.21	267.08
6	12489	9.31	269.848
6	12640	9.41	272.601
6	12791	9.51	275.339
6	12942	9.61	278.063
6	13093	9.71	280.773
6	13244	9.81	283.47
6	13395	9.91	286.157
6	13550	10.01	288.836
6	13701	10.11	291.509
6	13852	10.21	294.18
6	14003	10.31	296.852
6	14154	10.41	299.526
6	14305	10.51	302.206
6	14456	10.61	304.893
6	14607	10.71	307.588
6	14758	10.81	310.293
6	14909	10.91	313.008
6	15064	11.01	315.735
6	15215	11.11	318.473
6	15366	11.21	321.225
6	15517	11.31	323.989
6	15668	11.41	326.767
6	15819	11.51	329.558
6	15970	11.61	332.363
6	16121	11.71	335.183
6	16272	11.81	338.016
6	16423	11.91	340.864
6	16578	12.01	343.726
6	16729	12.11	346.602
6	16880	12.21	349.49
6	17031	12.31	352.388
6	17182	12.41	355.294
6	17333	12.51	358.206
6	17484	12.61	361.12
6	17635	12.71	364.034
6	17786	12.81	366.945
6	17937	12.91	369.85
6	18092	13.01	372.749
6	18243	13.11	375.64
6	18394	13.21	378.521
6	18545	13.31	381.391
6	18696	13.41	384.25
6	18847	13.51	387.097
6	18998	13.61	389.932
6	19149	13.71	392.753
6	19300	13.81	395.562
6	19451	13.91	398.356
6	19606	14.01	401.137
6	19757	14.11	403.904
6	19908	14.21	406.656
6	20059	14.31	409.394
6	20210	14.41	412.118
6	20361	14.51	414.827
6	20512	14.61	417.522
6	20663	14.71	420.204
6	20814	14.81	422.875
6	20965	14.91	425.538
6	21120	15.01	428.194
6	21271	15.11	430.846
6	21422	15.21	433.498
6	21573	15.31	436.152
6	21724	15.41	438.81
6	21875	15.51	441.474
6	22026	15.61	444.147
6	22177	15.71	446.829
6	22328	15.81	449.521
6	22479	15.91	452.224
6	22634	16.01	454.939
6	22785	16.11	457.666
6	22936	16.21	460.406
6	23087	16.31	463.159
6	23238	16.41	465.926
6	23389	16.51	468.706
6	23540	16.61	471.501
6	23691	16.71	474.31
6	23842	16.81	477.133
6	23993	16.91	479.971
6	24148	17.01	482.823
6	24299	17.11	485.688
6	24450	17.21	488.567
6	24601	17.31	491.456
6	24752	17.41	494.354
6	24903	17.51	497.258
6	25054	17.61	500.165
6	25205	17.71	503.073
6	25356	17.81	505.978
6	25507	17.91	508.878
6	25662	18.01	511.772
6	25813	18.11	514.657
6	25964	18.21	517.534
6	26115	18.31	520.4
6	26266	18.41	523.255
6	26417	18.51	526.098
6	26568	18.61	528.929
6	26719	18.71	531.746
6	26870	18.81	534.551
6	27021	18.91	537.342
6	27176	19.01	540.119
6	27327	19.11	542.882
6	27478	19.21	545.631
6	27629	19.31	548.365
6	27780	19.41	551.085
6	27931	19.51	553.791
6	28082	19.61	556.483
6	28233	19.71	559.162
6	28384	19.81	561.83
6	28535	19.91	564.489
6	28690	20.01	567.142
6	28841	20.11	569.792
6	28992	20.21	572.442
6	29143	20.31	575.093
6	29294	20.41	577.75
6	29445	20.51	580.413
6	29596	20.61	583.083
6	29747	20.71	585.764
6	29898	20.81	588.454
6	30049	20.91	591.155
6	30204	21.01	593.869
6	30355	21.11	596.595
6	30506	21.21	599.333
6	30657	21.31	602.085
6	30808	21.41	604.85
6	30959	21.51	607.63
6	31110	21.61	610.423
6	31261	21.71	613.23
6	31412	21.81	616.052
6	31563	21.91	618.889
6	31718	22.01	621.739
6	31869	22.11	624.604
6	32020	22.21	627.481
6	32171	22.31	630.369
6	32322	22.41	633.266
6	32473	22.51	636.169
6	32624	22.61	639.075
6	32775	22.71	641.982
6	32926	22.81	644.886
6	33077	22.91	647.786
6	33232	23.01	650.679
6	33383	23.11	653.564
6	33534	23.21	656.44
6	33685	23.31	659.305
6	33836	23.41	662.16
6	33987	23.51	665.002
6	34138	23.61	667.832
6	34289	23.71	670.649
6	34440	23.81	673.453
6	34591	23.91	676.244
6	34746	24.01	679.02
6	34897	24.11	681.783
6	35048	24.21	684.531
6	35199	24.31	687.265
6	35350	24.41	689.985
6	35501	24.51	692.69
6	35652	24.61	695.381
6	35803	24.71	698.06
6	35954	24.81	700.728
6	36105	24.91	703.387
6	36260	25.01	706.039
6	36411	25.11	708.689
6	36562	25.21	711.338
6	36713	25.31	713.99
6	36864	25.41	716.646
6	37015	25.51	719.308
6	37166	25.61	721.979
6	37317	25.71	724.659
6	37468	25.81	727.349
6	37619	25.91	730.05
6	37774	26.01	732.763
6	37925	26.11	735.489
6	38076	26.21	738.227
6	38227	26.31	740.979
6	38378	26.41	743.744
6	38529	26.51	746.523
6	38680	26.61	749.316
6	38831	26.71	752.124
6	38982	26.81	754.945
6	39133	26.91	757.782
6	39288	27.01	760.632
6	39439	27.11	763.496
6	39590	27.21	766.374
6	39741	27.31	769.262
6	39892	27.41	772.158
6	40043	27.51	775.061
6	40194	27.61	777.967
6	40345	27.71	780.874
6	40496	27.81	783.778
6	40647	27.91	786.677
6	40802	28.01	789.57
6	40953	28.11	792.455
6	41104	28.21	795.331
6	41255	28.31	798.196
6	41406	28.41	801.051
6	41557	28.51	803.893
6	41708	28.61	806.723
6	41859	28.71	809.54
6	42010	28.81	812.344
6	42161	28.91	815.135
6	42316	29.01	817.911
6	42467	29.11	820.674
6	42618	29.21	823.422
6	42769	29.31	826.156
6	42920	29.41	828.875
6	43071	29.51	831.58
6	43222	29.61	834.271
6	43373	29.71	836.95
6	43524	29.81	839.618
[...]
43	39699	27.25448316437	3
43	39850	27.354481345629	3
43	40001	27.454479526937	3
43	40152	27.554477708269	3
43	40303	27.654488889602	3
43	40454	27.754487070912	3
43	40605	27.854485252176	3
43	40756	27.954483433374	3
43	40911	28.054481614491	3
43	41062	28.154479795516	3
43	41213	28.254477976438	3
43	41364	28.354489157249	3
43	41515	28.454487337945	3
43	41666	28.55448551852	3
43	41817	28.654483698973	3
43	41968	28.754481879303	3
43	42119	28.854480059508	3
43	42270	28.95447823959	3
43	42425	29.054489419548	3
43	42576	29.154487599386	3
43	42727	29.254485779105	3
43	42878	29.354483958708	3
43	43029	29.454482138199	3
43	43180	29.554480317581	3
43	43331	29.654478496862	3
43	43482	29.754476676056	3
43	43633	29.85448785518	3
43	43784	29.954486034254	3
43	43939	30.054484213301	3
43	44090	30.154482392346	3
43	44241	30.254480571415	3
43	44392	30.354478750529	3
43	44543	30.454476929707	3
43	44694	30.554488108964	3
43	44845	30.654486288313	3
43	44996	30.754484467764	3
43	45147	30.854482647324	3
43	45298	30.954480827	3
43	45453	31.054479006794	3
43	45604	31.154477186709	3
43	45755	31.254488366746	3
43	45906	31.354486546908	3
43	46057	31.454484727191	3
43	46208	31.554482907595	3
43	46359	31.654481088119	3
43	46510	31.754479268761	3
43	46661	31.854477449518	3
43	46812	31.954488630388	3
43	46967	32.054486811367	3
43	47118	32.154484992444	3
43	47269	32.254483173607	3
43	47420	32.354481354839	3
43	47571	32.454479536119	3
43	47722	32.554477717426	3
43	47873	32.654488898733	3
43	48024	32.754487080016	3
43	48175	32.854485261253	3
43	48326	32.954483442425	3
43	48481	33.054481623516	3
43	48632	33.154479804514	3
43	48783	33.254477985409	3
43	48934	33.354489166194	3
43	49085	33.454487346864	3
43	49236	33.554485527414	3
43	49387	33.654483707843	3
43	49538	33.754481888148	3
43	49689	33.854480068329	3
43	49840	33.954478248386	3
43	49995	34.05448942832	3
43	50146	34.154487608133	3
43	50297	34.254485787827	3
43	50448	34.354483967406	3
43	50599	34.454482146871	3
43	50750	34.554480326227	3
43	50901	34.654478505484	3
43	51052	34.754476684653	3
43	51203	34.854487863753	3
43	51354	34.954486042803	3
43	51509	35.054484221827	3
43	51660	35.154482400849	3
43	51811	35.254480579893	3
43	51962	35.354478758982	3
43	52113	35.454476938136	3
43	52264	35.55448811737	3
43	52415	35.654486296697	3
43	52566	35.754484476126	3
43	52717	35.854482655664	3
43	52868	35.954480835318	3
43	53023	36.054479015089	3
43	53174	36.154477194982	3
43	53325	36.254488374998	3
43	53476	36.354486555137	3
43	53627	36.454484735399	3
43	53778	36.554482915783	3
43	53929	36.654481096286	3
43	54080	36.754479276907	3
43	54231	36.854477457643	3
43	54382	36.954488638492	3
43	54537	37.054486819448	3
43	54688	37.154485000504	3
43	54839	37.254483181647	3
43	54990	37.354481362859	3
43	55141	37.454479544119	3
43	55292	37.554477725405	3
43	55443	37.654488906693	3
43	55594	37.754487087957	3
43	55745	37.854485269175	3
43	55896	37.954483450327	3
43	56051	38.054481631399	3
43	56202	38.154479812379	3
43	56353	38.254477993256	3
43	56504	38.354489174023	3
43	56655	38.454487354674	3
43	56806	38.554485535206	3
43	56957	38.654483715616	3
43	57108	38.754481895903	3
43	57259	38.854480076066	3
43	57410	38.954478256105	3
43	57565	39.054489436022	3
43	57716	39.154487615818	3
43	57867	39.254485795495	3
43	58018	39.354483975057	3
43	58169	39.454482154505	3
43	58320	39.554480333846	3
43	58471	39.654478513087	3
43	58622	39.75447669224	3
43	58773	39.854487871324	3
43	58924	39.954486050358	3
43	59079	40.054484229366	3
43	59230	40.154482408372	3
43	59381	40.254480587401	3
43	59532	40.354478766476	3
43	59683	40.454476945616	3
43	59834	40.554488124835	3
43	59985	40.654486304146	3
43	60136	40.75448448356	3
43	60287	40.854482663083	3
43	60438	40.954480842722	3
43	60593	41.054479022481	3
43	60744	41.154477202361	3
43	60895	41.254488382363	3
43	61046	41.354486562488	3
43	61197	41.454484742735	3
43	61348	41.554482923105	3
43	61499	41.654481103595	3
43	61650	41.754479284204	3
43	61801	41.854477464927	3
43	61952	41.954488645764	3
43	62107	42.054486826709	3
43	62258	42.154485007753	3
43	62409	42.254483188884	3
43	62560	42.354481370084	3
43	62711	42.454479551333	3
43	62862	42.554477732607	3
43	63013	42.654488913882	3
43	63164	42.754487095135	3
43	63315	42.854485276342	3
43	63466	42.954483457484	3
43	63621	43.054481638545	3
43	63772	43.154479819514	3
43	63923	43.254478000379	3
43	64074	43.354489181134	3
43	64225	43.454487361774	3
43	64376	43.554485542296	3
43	64527	43.654483722695	3
43	64678	43.754481902972	3
43	64829	43.854480083124	3
43	64980	43.954478263153	3
43	65135	44.054489443059	3
43	65286	44.154487622845	3
43	65437	44.254485802512	3
43	65588	44.354483982064	3
43	65739	44.454482161503	3
43	65890	44.554480340833	3
43	66041	44.654478520064	3
43	66192	44.754476699208	3
43	66343	44.854487878282	3
43	66494	44.954486057307	3
43	66649	45.054484236306	3
43	66800	45.154482415303	3
43	66951	45.254480594324	3
43	67102	45.35447877339	3
43	67253	45.45447695252	3
43	67404	45.554488131731	3
43	67555	45.654486311035	3
43	67706	45.75448449044	3
43	67857	45.854482669955	3
43	68008	45.954480849586	3
43	68163	46.054479029336	3
43	68314	46.154477209208	3
43	68465	46.254488389202	3
43	68616	46.354486569319	3
43	68767	46.45448474956	3
43	68918	46.554482929922	3
43	69069	46.654481110404	3
43	69220	46.754479291004	3
43	69371	46.854477471721	3
43	69522	46.95448865255	3
43	69677	47.054486833487	3
43	69828	47.154485014523	3
43	69979	47.254483195646	3
43	70130	47.354481376839	3
43	70281	47.454479558081	3
43	70432	47.554477739349	3
43	70583	47.654488920618	3
43	70734	47.754487101864	3
43	70885	47.854485283064	3
43	71036	47.954483464199	3
43	71191	48.054481645254	3
43	71342	48.154479826216	3
43	71493	48.254478007075	3
43	71644	48.354489187825	3
43	71795	48.454487368459	3
43	71946	48.554485548975	3
43	72097	48.654483729369	3
43	72248	48.754481909639	3
43	72399	48.854480089785	3
43	72550	48.954478269808	3
43	72705	49.054489449709	3
43	72856	49.154487629489	3
43	73007	49.25448580915	3
43	73158	49.354483988697	3
43	73309	49.45448216813	3
43	73460	49.554480347456	3
43	73611	49.654478526682	3
43	73762	49.754476705821	3
43	73913	49.854487884891	3
43	74064	49.954486063911	3
43	74219	50.054484242905	3
43	74370	50.154482421898	3
43	74521	50.254480600913	3
43	74672	50.354478779975	3
43	74823	50.454476959101	3
43	74974	50.554488138307	3
43	75125	50.654486317606	3
43	75276	50.754484497006	3
43	75427	50.854482676516	3
43	75578	50.954480856141	3
43	75733	51.054479035886	3
43	75884	51.154477215752	3
43	76035	51.254488395741	3
43	76186	51.354486575854	3
43	76337	51.45448475609	3
43	76488	51.554482936447	3
43	76639	51.654481116925	3
43	76790	51.754479297522	3
43	76941	51.854477478234	3
43	77092	51.954488659059	3
43	77247	52.054486839991	3
43	77398	52.154485021024	3
43	77549	52.254483202143	3
43	77700	52.354481383331	3
43	77851	52.454479564569	3
43	78002	52.554477745833	3
43	78153	52.654488927098	3
43	78304	52.754487108341	3
43	78455	52.854485289537	3
43	78606	52.954483470669	3
43	78761	53.054481651721	3
43	78912	53.15447983268	3
43	79063	53.254478013537	3
43	79214	53.354489194283	3
43	79365	53.454487374914	3
43	79516	53.554485555426	3
43	79667	53.654483735816	3
43	79818	53.754481916083	3
43	79969	53.854480096225	3
43	80120	53.954478276245	3
43	80275	54.054489456143	3
43	80426	54.154487635921	3
43	80577	54.25448581558	3
43	80728	54.354483995123	3
43	80879	54.454482174553	3
43	81030	54.554480353876	3
43	81181	54.654478533099	3
43	81332	54.754476712235	3
43	81483	54.854487891301	3
43	81634	54.954486070319	3
43	81789	55.05448424931	3
43	81940	55.154482428299	3
43	82091	55.254480607311	3
43	82242	55.354478786369	3
43	82393	55.454476965492	3
43	82544	55.554488144695	3
43	82695	55.654486323991	3
43	82846	55.75448450339	3
43	82997	55.854482682898	3
43	83148	55.954480862522	3
43	83303	56.054479042264	3
43	83454	56.154477222128	3
43	83605	56.254488402115	3
43	83756	56.354486582227	3
43	83907	56.454484762461	3
43	84058	56.554482942817	3
43	84209	56.654481123294	3
43	84360	56.754479303888	3
43	84511	56.854477484599	3
43	84662	56.954488665422	3
43	84817	57.054486846353	3
43	84968	57.154485027384	3
43	85119	57.254483208502	3
43	85270	57.354481389689	3
43	85421	57.454479570924	3
43	85572	57.554477752186	3
43	85723	57.65448893345	3
43	85874	57.754487114691	3
43	86025	57.854485295886	3
43	86176	57.954483477016	3
43	86331	58.054481658064	3
43	86482	58.154479839021	3
43	86633	58.254478019875	3
43	86784	58.354489200619	3
43	86935	58.454487381249	3
43	87086	58.554485561759	3
43	87237	58.654483742147	3
43	87388	58.754481922411	3
43	87539	58.854480102552	3
43	87690	58.954478282571	3
43	87845	59.054489462467	3
43	87996	59.154487642243	3
43	88147	59.254485821901	3
43	88298	59.354484001442	3
43	88449	59.454482180871	3
43	88600	59.554480360192	3
43	88751	59.654478539413	3
43	88902	59.754476718548	3
43	89053	59.854487897613	3
43	89204	59.954486076629	3
44	1428	2	0
44	2932	3	0
44	4436	4	0
44	5941	5	0
44	7454	6	0
44	8968	7	0
44	10482	8	0
44	11996	9	0
44	13510	10	0
44	15024	11	0
44	16538	12	0
44	18052	13	0
44	19566	14	0
44	21080	15	0
44	22594	16	0
44	24108	17	0
44	25622	18	0
44	27136	19	0
44	28650	20	0
44	30164	21	0
44	31678	22	0
44	33192	23	0
44	34706	24	0
44	36220	25	0
44	37734	26	0
44	39248	27	0
44	40762	28	0
44	42276	29	0
44	43790	30	0
44	45304	31	0
44	46818	32	0
44	48332	33	0
44	49846	34	0
44	51360	35	0
44	52874	36	0
44	54388	37	0
44	55902	38	0
44	57416	39	0
44	58930	40	0
44	60444	41	0
44	61958	42	0
44	63472	43	0
44	64986	44	0
44	66500	45	0
44	68014	46	0
44	69528	47	0
44	71042	48	0
44	72556	49	0
44	74070	50	0
44	75584	51	0
44	77098	52	0
44	78612	53	0
44	80126	54	0
44	81640	55	0
44	83154	56	0
44	84668	57	0
44	86182	58	0
44	87696	59	0
44	89210	60	0
45	1428	2	0.010929
45	2932	3	0.01249
45	4436	4	0.01249
45	5941	5	0.01249
45	7454	6	0.01249
45	8968	7	0.01249
45	10482	8	0.01249
45	11996	9	0.01249
45	13510	10	0.01249
45	15024	11	0.01249
45	16538	12	0.01249
45	18052	13	0.01249
45	19566	14	0.01249
45	21080	15	0.01249
45	22594	16	0.01249
45	24108	17	0.01249
45	25622	18	0.01249
45	27136	19	0.01249
45	28650	20	0.01249
45	30164	21	0.01249
45	31678	22	0.01249
45	33192	23	0.01249
45	34706	24	0.01249
45	36220	25	0.01249
45	37734	26	0.01249
45	39248	27	0.01249
45	40762	28	0.01249
45	42276	29	0.01249
45	43790	30	0.01249
45	45304	31	0.01249
45	46818	32	0.01249
45	48332	33	0.01249
45	49846	34	0.01249
45	51360	35	0.01249
45	52874	36	0.01249
45	54388	37	0.01249
45	55902	38	0.01249
45	57416	39	0.01249
45	58930	40	0.01249
45	60444	41	0.01249
45	61958	42	0.01249
45	63472	43	0.01249
45	64986	44	0.01249
45	66500	45	0.01249
45	68014	46	0.01249
45	69528	47	0.01249
45	71042	48	0.01249
45	72556	49	0.01249
45	74070	50	0.01249
45	75584	51	0.01249
45	77098	52	0.01249
45	78612	53	0.01249
45	80126	54	0.01249
45	81640	55	0.01249
45	83154	56	0.01249
45	84668	57	0.01249
45	86182	58	0.01249
45	87696	59	0.01249
45	89210	60	0.01249
46	1428	2	0
46	2932	3	0
46	4436	4	0
46	5941	5	0
46	7454	6	0
46	8968	7	0
46	10482	8	0
46	11996	9	0
46	13510	10	0
46	15024	11	0
46	16538	12	0
46	18052	13	0
46	19566	14	0
46	21080	15	0
46	22594	16	0
46	24108	17	0
46	25622	18	0
46	27136	19	0
46	28650	20	0
46	30164	21	0
46	31678	22	0
46	33192	23	0
46	34706	24	0
46	36220	25	0
46	37734	26	0
46	39248	27	0
46	40762	28	0
46	42276	29	0
46	43790	30	0
46	45304	31	0
46	46818	32	0
46	48332	33	0
46	49846	34	0
46	51360	35	0
46	52874	36	0
46	54388	37	0
46	55902	38	0
46	57416	39	0
46	58930	40	0
46	60444	41	0
46	61958	42	0
46	63472	43	0
46	64986	44	0
46	66500	45	0
46	68014	46	0
46	69528	47	0
46	71042	48	0
46	72556	49	0
46	74070	50	0
46	75584	51	0
46	77098	52	0
46	78612	53	0
46	80126	54	0
46	81640	55	0
46	83154	56	0
46	84668	57	0
46	86182	58	0
46	87696	59	0
46	89210	60	0
47	1429	2	1
47	2933	3	1
47	4437	4	1
47	5942	5	1
47	7455	6	1
47	8969	7	1
47	10483	8	1
47	11997	9	1
47	13511	10	1
47	15025	11	1
47	16539	12	1
47	18053	13	1
47	19567	14	1
47	21081	15	1
47	22595	16	1
47	24109	17	1
47	25623	18	1
47	27137	19	1
47	28651	20	1
47	30165	21	1
47	31679	22	1
47	33193	23	1
47	34707	24	1
47	36221	25	1
47	37735	26	1
47	39249	27	1
47	40763	28	1
47	42277	29	1
47	43791	30	1
47	45305	31	1
47	46819	32	1
47	48333	33	1
47	49847	34	1
47	51361	35	1
47	52875	36	1
47	54389	37	1
47	55903	38	1
47	57417	39	1
47	58931	40	1
47	60445	41	1
47	61959	42	1
47	63473	43	1
47	64987	44	1
47	66501	45	1
47	68015	46	1
47	69529	47	1
47	71043	48	1
47	72557	49	1
47	74071	50	1
47	75585	51	1
47	77099	52	1
47	78613	53	1
47	80127	54	1
47	81641	55	1
47	83155	56	1
47	84669	57	1
47	86183	58	1
47	87697	59	1
47	89211	60	1
48	1429	2	0.010929
48	2933	3	0.01249
48	4437	4	0.01249
48	5942	5	0.01249
48	7455	6	0.01249
48	8969	7	0.01249
48	10483	8	0.01249
48	11997	9	0.01249
48	13511	10	0.01249
48	15025	11	0.01249
48	16539	12	0.01249
48	18053	13	0.01249
48	19567	14	0.01249
48	21081	15	0.01249
48	22595	16	0.01249
48	24109	17	0.01249
48	25623	18	0.01249
48	27137	19	0.01249
48	28651	20	0.01249
48	30165	21	0.01249
48	31679	22	0.01249
48	33193	23	0.01249
48	34707	24	0.01249
48	36221	25	0.01249
48	37735	26	0.01249
48	39249	27	0.01249
48	40763	28	0.01249
48	42277	29	0.01249
48	43791	30	0.01249
48	45305	31	0.01249
48	46819	32	0.01249
48	48333	33	0.01249
48	49847	34	0.01249
48	51361	35	0.01249
48	52875	36	0.01249
48	54389	37	0.01249
48	55903	38	0.01249
48	57417	39	0.01249
48	58931	40	0.01249
48	60445	41	0.01249
48	61959	42	0.01249
48	63473	43	0.01249
48	64987	44	0.01249
48	66501	45	0.01249
48	68015	46	0.01249
48	69529	47	0.01249
48	71043	48	0.01249
48	72557	49	0.01249
48	74071	50	0.01249
48	75585	51	0.01249
48	77099	52	0.01249
48	78613	53	0.01249
48	80127	54	0.01249
48	81641	55	0.01249
48	83155	56	0.01249
48	84669	57	0.01249
48	86183	58	0.01249
48	87697	59	0.01249
48	89211	60	0.01249
49	1429	2	0
49	2933	3	0
49	4437	4	0
49	5942	5	0
49	7455	6	0
49	8969	7	0
49	10483	8	0
49	11997	9	0
49	13511	10	0
49	15025	11	0
49	16539	12	0
49	18053	13	0
49	19567	14	0
49	21081	15	0
49	22595	16	0
49	24109	17	0
49	25623	18	0
49	27137	19	0
49	28651	20	0
49	30165	21	0
49	31679	22	0
49	33193	23	0
49	34707	24	0
49	36221	25	0
49	37735	26	0
49	39249	27	0
49	40763	28	0
49	42277	29	0
49	43791	30	0
49	45305	31	0
49	46819	32	0
49	48333	33	0
49	49847	34	0
49	51361	35	0
49	52875	36	0
49	54389	37	0
49	55903	38	0
49	57417	39	0
49	58931	40	0
49	60445	41	0
49	61959	42	0
49	63473	43	0
49	64987	44	0
49	66501	45	0
49	68015	46	0
49	69529	47	0
49	71043	48	0
49	72557	49	0
49	74071	50	0
49	75585	51	0
49	77099	52	0
49	78613	53	0
49	80127	54	0
49	81641	55	0
49	83155	56	0
49	84669	57	0
49	86183	58	0
49	87697	59	0
49	89211	60	0
50	1430	2	2
50	2934	3	2
50	4438	4	2
50	5943	5	2
50	7456	6	2
50	8970	7	2
50	10484	8	2
50	11998	9	2
50	13512	10	2
50	15026	11	2
50	16540	12	2
50	18054	13	2
50	19568	14	2
50	21082	15	2
50	22596	16	2
50	24110	17	2
50	25624	18	2
50	27138	19	2
50	28652	20	2
50	30166	21	2
50	31680	22	2
50	33194	23	2
50	34708	24	2
50	36222	25	2
50	37736	26	2
50	39250	27	2
50	40764	28	2
50	42278	29	2
50	43792	30	2
50	45306	31	2
50	46820	32	2
50	48334	33	2
50	49848	34	2
50	51362	35	2
50	52876	36	2
50	54390	37	2
50	55904	38	2
50	57418	39	2
50	58932	40	2
50	60446	41	2
50	61960	42	2
50	63474	43	2
50	64988	44	2
50	66502	45	2
50	68016	46	2
50	69530	47	2
50	71044	48	2
50	72558	49	2
50	74072	50	2
50	75586	51	2
50	77100	52	2
50	78614	53	2
50	80128	54	2
50	81642	55	2
50	83156	56	2
50	84670	57	2
50	86184	58	2
50	87698	59	2
50	89212	60	2
51	1430	2	0.010929
51	2934	3	0.01249
51	4438	4	0.01249
51	5943	5	0.01249
51	7456	6	0.01249
51	8970	7	0.01249
51	10484	8	0.01249
51	11998	9	0.01249
51	13512	10	0.01249
51	15026	11	0.01249
51	16540	12	0.01249
51	18054	13	0.01249
51	19568	14	0.01249
51	21082	15	0.01249
51	22596	16	0.01249
51	24110	17	0.01249
51	25624	18	0.01249
51	27138	19	0.01249
51	28652	20	0.01249
51	30166	21	0.01249
51	31680	22	0.01249
51	33194	23	0.01249
51	34708	24	0.01249
51	36222	25	0.01249
51	37736	26	0.01249
51	39250	27	0.01249
51	40764	28	0.01249
51	42278	29	0.01249
51	43792	30	0.01249
51	45306	31	0.01249
51	46820	32	0.01249
51	48334	33	0.01249
51	49848	34	0.01249
51	51362	35	0.01249
51	52876	36	0.01249
51	54390	37	0.01249
51	55904	38	0.01249
51	57418	39	0.01249
51	58932	40	0.01249
51	60446	41	0.01249
51	61960	42	0.01249
51	63474	43	0.01249
51	64988	44	0.01249
51	66502	45	0.01249
51	68016	46	0.01249
51	69530	47	0.01249
51	71044	48	0.01249
51	72558	49	0.01249
51	74072	50	0.01249
51	75586	51	0.01249
51	77100	52	0.01249
51	78614	53	0.01249
51	80128	54	0.01249
51	81642	55	0.01249
51	83156	56	0.01249
51	84670	57	0.01249
51	86184	58	0.01249
51	87698	59	0.01249
51	89212	60	0.01249
52	1430	2	0
52	2934	3	0
52	4438	4	0
52	5943	5	0
52	7456	6	0
52	8970	7	0
52	10484	8	0
52	11998	9	0
52	13512	10	0
52	15026	11	0
52	16540	12	0
52	18054	13	0
52	19568	14	0
52	21082	15	0
52	22596	16	0
52	24110	17	0
52	25624	18	0
52	27138	19	0
52	28652	20	0
52	30166	21	0
52	31680	22	0
52	33194	23	0
52	34708	24	0
52	36222	25	0
52	37736	26	0
52	39250	27	0
52	40764	28	0
52	42278	29	0
52	43792	30	0
52	45306	31	0
52	46820	32	0
52	48334	33	0
52	49848	34	0
52	51362	35	0
52	52876	36	0
52	54390	37	0
52	55904	38	0
52	57418	39	0
52	58932	40	0
52	60446	41	0
52	61960	42	0
52	63474	43	0
52	64988	44	0
52	66502	45	0
52	68016	46	0
52	69530	47	0
52	71044	48	0
52	72558	49	0
52	74072	50	0
52	75586	51	0
52	77100	52	0
52	78614	53	0
52	80128	54	0
52	81642	55	0
52	83156	56	0
52	84670	57	0
52	86184	58	0
52	87698	59	0
52	89212	60	0
53	1431	2	3
53	2935	3	3
53	4439	4	3
53	5944	5	3
53	7457	6	3
53	8971	7	3
53	10485	8	3
53	11999	9	3
53	13513	10	3
53	15027	11	3
53	16541	12	3
53	18055	13	3
53	19569	14	3
53	21083	15	3
53	22597	16	3
53	24111	17	3
53	25625	18	3
53	27139	19	3
53	28653	20	3
53	30167	21	3
53	31681	22	3
53	33195	23	3
53	34709	24	3
53	36223	25	3
53	37737	26	3
53	39251	27	3
53	40765	28	3
53	42279	29	3
53	43793	30	3
53	45307	31	3
53	46821	32	3
53	48335	33	3
53	49849	34	3
53	51363	35	3
53	52877	36	3
53	54391	37	3
53	55905	38	3
53	57419	39	3
53	58933	40	3
53	60447	41	3
53	61961	42	3
53	63475	43	3
53	64989	44	3
53	66503	45	3
53	68017	46	3
53	69531	47	3
53	71045	48	3
53	72559	49	3
53	74073	50	3
53	75587	51	3
53	77101	52	3
53	78615	53	3
53	80129	54	3
53	81643	55	3
53	83157	56	3
53	84671	57	3
53	86185	58	3
53	87699	59	3
53	89213	60	3
54	1431	2	0.010928
54	2935	3	0.01249
54	4439	4	0.01249
54	5944	5	0.01249
54	7457	6	0.01249
54	8971	7	0.01249
54	10485	8	0.01249
54	11999	9	0.01249
54	13513	10	0.01249
54	15027	11	0.01249
54	16541	12	0.01249
54	18055	13	0.01249
54	19569	14	0.01249
54	21083	15	0.01249
54	22597	16	0.01249
54	24111	17	0.01249
54	25625	18	0.01249
54	27139	19	0.01249
54	28653	20	0.01249
54	30167	21	0.01249
54	31681	22	0.01249
54	33195	23	0.01249
54	34709	24	0.01249
54	36223	25	0.01249
54	37737	26	0.01249
54	39251	27	0.01249
54	40765	28	0.01249
54	42279	29	0.01249
54	43793	30	0.01249
54	45307	31	0.01249
54	46821	32	0.01249
54	48335	33	0.01249
54	49849	34	0.01249
54	51363	35	0.01249
54	52877	36	0.01249
54	54391	37	0.01249
54	55905	38	0.01249
54	57419	39	0.01249
54	58933	40	0.01249
54	60447	41	0.01249
54	61961	42	0.01249
54	63475	43	0.01249
54	64989	44	0.01249
54	66503	45	0.01249
54	68017	46	0.01249
54	69531	47	0.01249
54	71045	48	0.01249
54	72559	49	0.01249
54	74073	50	0.01249
54	75587	51	0.01249
54	77101	52	0.01249
54	78615	53	0.01249
54	80129	54	0.01249
54	81643	55	0.01249
54	83157	56	0.01249
54	84671	57	0.01249
54	86185	58	0.01249
54	87699	59	0.01249
54	89213	60	0.01249
55	1431	2	0
55	2935	3	0
55	4439	4	0
55	5944	5	0
55	7457	6	0
55	8971	7	0
55	10485	8	0
55	11999	9	0
55	13513	10	0
55	15027	11	0
55	16541	12	0
55	18055	13	0
55	19569	14	0
55	21083	15	0
55	22597	16	0
55	24111	17	0
55	25625	18	0
55	27139	19	0
55	28653	20	0
55	30167	21	0
55	31681	22	0
55	33195	23	0
55	34709	24	0
55	36223	25	0
55	37737	26	0
55	39251	27	0
55	40765	28	0
55	42279	29	0
55	43793	30	0
55	45307	31	0
55	46821	32	0
55	48335	33	0
55	49849	34	0
55	51363	35	0
55	52877	36	0
55	54391	37	0
55	55905	38	0
55	57419	39	0
55	58933	40	0
55	60447	41	0
55	61961	42	0
55	63475	43	0
55	64989	44	0
55	66503	45	0
55	68017	46	0
55	69531	47	0
55	71045	48	0
55	72559	49	0
55	74073	50	0
55	75587	51	0
55	77101	52	0
55	78615	53	0
55	80129	54	0
55	81643	55	0
55	83157	56	0
55	84671	57	0
55	86185	58	0
55	87699	59	0
55	89213	60	0

